BEGIN Configuration File
Name: dragonflyconfig
// Dragonfly
//
// Flow co1	ntrol
//

// Total number of VCs must match the above assignments
num_vcs     = 3;

vc_buf_size = 256;

wait_for_tail_credit = 0;

//
// Router architecture
//
vc_allocator = islip; 
sw_allocator = islip;
alloc_iters  = 4;

credit_delay   = 0;
routing_delay  = 0;
vc_alloc_delay = 0;
sw_alloc_delay = 0;
st_final_delay = 0;

input_speedup     = 1;
output_speedup    = 1;
internal_speedup  = 1.7;


//iq_routing_delay = 0;
//row_routing_delay = 0;
//subsw_alloc_delay = 0;
//out_alloc_delay = 0;

warmup_periods = 3;
sim_count          = 1;

sample_period  = 1000;  


routing_function = min;

priority = none;
traffic       = uniform ;

injection_rate =0.2;
const_flits_per_packet = 1;

topology = dragonflynew;

k  = 4;
n  = 1;


END Configuration File
 Dragonfly 
 p = 4 n = 1
 each switch - total radix =  15
 # of switches = 264
 # of channels = 2904
 # of sources = 1056
 # of nodes ( size of network ) = 1056
 # of groups (_g) = 33
 # of routers per group (_a) = 8
Done links
Unable to open flit watch file, continuing with simulation
I am thread 0
I am thread 1
I am thread 2
I am thread 3
I am thread I am thread 5
I am thread 7
I am thread 4
I am thread 8
6
I am thread 11
I am thread 10
I am thread 9
I am thread 12
I am thread 13
I am thread 14
I am thread 18
I am thread 15
I am thread 19
I am thread 20
I am thread 16
I am thread 17
I am thread 23
I am thread 21
I am thread 22
I am thread 24
I am thread 25
I am thread 26
I am thread 27
I am thread 28
I am thread 29
I am thread 30
I am thread 31
0%=================================
% Average latency = 116.231
% Accepted packets = 0.136 at node 89 (avg = 0.175666)
lat(1) = 116.231;
bins = [ 0 ...999];
freq = [ 0 185 380 200 14 1 1 0 0 0 0 1120 2456 1547 306 47 6 1 0 0 0 0 0 0 0 0 0 0 0 0 0 0 0 0 0 0 0 0 0 0 0 0 0 0 0 0 0 0 0 0 0 0 0 0 0 0 0 0 0 0 0 0 0 0 0 0 0 0 0 0 0 0 0 0 0 0 0 0 0 0 0 0 0 0 0 0 0 0 0 0 0 0 0 0 0 0 0 0 0 0 0 593 1326 819 142 20 8 0 0 0 0 7243 16543 11842 3201 681 124 22 8 0 0 21868 53160 42045 14533 3916 888 192 55 9 1 0 0 0 0 0 0 0 0 0 0 0 0 0 0 0 0 0 0 0 0 0 0 0 0 0 0 0 0 0 0 0 0 0 0 0 0 0 0 0 0 0 0 0 0 0 0 0 0 0 0 0 0 0 0 0 0 0 0 0 0 0 0 0 0 0 0 0 0 0 0 0 0 0 0 0 0 0 0 0 0 0 0 0 0 0 0 0 0 0 0 0 0 0 0 0 0 0 0 0 0 0 0 0 0 0 0 0 0 0 0 0 0 0 0 0 0 0 0 0 0 0 0 0 0 0 0 0 0 0 0 0 0 0 0 0 0 0 0 0 0 0 0 0 0 0 0 0 0 0 0 0 0 0 0 0 0 0 0 0 0 0 0 0 0 0 0 0 0 0 0 0 0 0 0 0 0 0 0 0 0 0 0 0 0 0 0 0 0 0 0 0 0 0 0 0 0 0 0 0 0 0 0 0 0 0 0 0 0 0 0 0 0 0 0 0 0 0 0 0 0 0 0 0 0 0 0 0 0 0 0 0 0 0 0 0 0 0 0 0 0 0 0 0 0 0 0 0 0 0 0 0 0 0 0 0 0 0 0 0 0 0 0 0 0 0 0 0 0 0 0 0 0 0 0 0 0 0 0 0 0 0 0 0 0 0 0 0 0 0 0 0 0 0 0 0 0 0 0 0 0 0 0 0 0 0 0 0 0 0 0 0 0 0 0 0 0 0 0 0 0 0 0 0 0 0 0 0 0 0 0 0 0 0 0 0 0 0 0 0 0 0 0 0 0 0 0 0 0 0 0 0 0 0 0 0 0 0 0 0 0 0 0 0 0 0 0 0 0 0 0 0 0 0 0 0 0 0 0 0 0 0 0 0 0 0 0 0 0 0 0 0 0 0 0 0 0 0 0 0 0 0 0 0 0 0 0 0 0 0 0 0 0 0 0 0 0 0 0 0 0 0 0 0 0 0 0 0 0 0 0 0 0 0 0 0 0 0 0 0 0 0 0 0 0 0 0 0 0 0 0 0 0 0 0 0 0 0 0 0 0 0 0 0 0 0 0 0 0 0 0 0 0 0 0 0 0 0 0 0 0 0 0 0 0 0 0 0 0 0 0 0 0 0 0 0 0 0 0 0 0 0 0 0 0 0 0 0 0 0 0 0 0 0 0 0 0 0 0 0 0 0 0 0 0 0 0 0 0 0 0 0 0 0 0 0 0 0 0 0 0 0 0 0 0 0 0 0 0 0 0 0 0 0 0 0 0 0 0 0 0 0 0 0 0 0 0 0 0 0 0 0 0 0 0 0 0 0 0 0 0 0 0 0 0 0 0 0 0 0 0 0 0 0 0 0 0 0 0 0 0 0 0 0 0 0 0 0 0 0 0 0 0 0 0 0 0 0 0 0 0 0 0 0 0 0 0 0 0 0 0 0 0 0 0 0 0 0 0 0 0 0 0 0 0 0 0 0 0 0 0 0 0 0 0 0 0 0 0 0 0 0 0 0 0 0 0 0 0 0 0 0 0 0 0 0 0 0 0 0 0 0 0 0 0 0 0 0 0 0 0 0 0 0 0 0 0 0 0 0 0 0 0 0 0 0 0 0 0 0 0 0 0 0 0 0 0 0 0 0 0 0 0 0 0 0 0 0 0 0 0 0 0 0 0 0 0 0 0 0 0 0 0 0 0 0 0 0 0 0 0 0 0 0 0 0 0 0 0 0 0 0 0 0 0 0 0 0 0 0 0 0 0 0 0 0 0 0 0 0 0 0 0 0 0 0 0 0 0 0 0 0 0 0 0 0 0 0 0 0 0 0 0 0 0 0 0 0 0 0 0 0 0 0 0 0 0 0 0 0 0 0 0 0 0 0 0 0 0 0 0 0 0 0 0 0 0 0 0 0 0 0 0 0 0 0 0 0 0 0 0 0 0 0 0 0 0 0 0 0 0 0 0 0 0 0 0 0 0 0 ];
thru(1,:) = [ 0.158 0.181 0.179 0.146 0.174 0.189 0.174 0.155 0.196 0.189 0.154 0.184 0.169 0.175 0.165 0.175 0.182 0.173 0.177 0.144 0.177 0.143 0.162 0.187 0.174 0.164 0.17 0.178 0.166 0.158 0.193 0.188 0.19 0.22 0.198 0.163 0.191 0.191 0.166 0.176 0.168 0.175 0.184 0.175 0.176 0.204 0.189 0.186 0.19 0.153 0.184 0.15 0.173 0.176 0.16 0.194 0.2 0.148 0.171 0.19 0.164 0.196 0.158 0.19 0.175 0.203 0.169 0.168 0.178 0.156 0.14 0.178 0.174 0.171 0.159 0.153 0.163 0.154 0.174 0.166 0.187 0.164 0.166 0.18 0.186 0.169 0.179 0.173 0.194 0.136 0.178 0.174 0.18 0.178 0.175 0.174 0.156 0.187 0.17 0.184 0.162 0.189 0.168 0.165 0.185 0.173 0.184 0.159 0.17 0.161 0.18 0.178 0.194 0.168 0.168 0.182 0.168 0.17 0.176 0.199 0.18 0.203 0.183 0.183 0.185 0.162 0.174 0.176 0.196 0.187 0.176 0.159 0.182 0.162 0.199 0.17 0.175 0.176 0.172 0.148 0.182 0.182 0.204 0.161 0.177 0.187 0.198 0.164 0.17 0.197 0.175 0.179 0.166 0.151 0.15 0.21 0.165 0.154 0.178 0.171 0.177 0.18 0.167 0.171 0.184 0.145 0.186 0.174 0.188 0.176 0.177 0.178 0.194 0.156 0.184 0.166 0.197 0.17 0.201 0.166 0.154 0.187 0.169 0.163 0.169 0.176 0.173 0.169 0.176 0.203 0.202 0.176 0.161 0.186 0.196 0.201 0.172 0.164 0.163 0.155 0.172 0.196 0.166 0.159 0.187 0.188 0.185 0.16 0.167 0.178 0.182 0.16 0.165 0.157 0.184 0.19 0.192 0.168 0.14 0.144 0.194 0.178 0.183 0.182 0.169 0.184 0.182 0.154 0.174 0.209 0.143 0.172 0.177 0.158 0.18 0.178 0.17 0.175 0.156 0.179 0.168 0.162 0.198 0.161 0.194 0.168 0.167 0.172 0.167 0.171 0.148 0.168 0.163 0.182 0.181 0.164 0.196 0.157 0.183 0.181 0.183 0.209 0.171 0.183 0.162 0.188 0.171 0.147 0.173 0.169 0.171 0.167 0.181 0.183 0.189 0.146 0.171 0.164 0.186 0.186 0.14 0.175 0.155 0.176 0.154 0.175 0.187 0.162 0.166 0.176 0.18 0.166 0.181 0.162 0.153 0.168 0.178 0.167 0.176 0.155 0.152 0.193 0.193 0.175 0.194 0.171 0.171 0.203 0.19 0.145 0.184 0.155 0.195 0.182 0.176 0.15 0.168 0.166 0.159 0.175 0.169 0.167 0.17 0.141 0.178 0.168 0.149 0.189 0.18 0.172 0.171 0.186 0.183 0.176 0.184 0.178 0.178 0.184 0.158 0.171 0.175 0.203 0.186 0.162 0.163 0.179 0.155 0.141 0.184 0.167 0.175 0.157 0.162 0.169 0.155 0.175 0.186 0.18 0.168 0.162 0.169 0.169 0.19 0.179 0.165 0.156 0.163 0.192 0.193 0.164 0.191 0.189 0.152 0.169 0.186 0.149 0.16 0.186 0.168 0.184 0.183 0.207 0.169 0.195 0.196 0.174 0.161 0.17 0.188 0.178 0.161 0.168 0.179 0.19 0.179 0.155 0.175 0.181 0.165 0.185 0.176 0.167 0.163 0.189 0.176 0.193 0.175 0.187 0.172 0.176 0.206 0.185 0.19 0.196 0.177 0.17 0.186 0.161 0.174 0.173 0.179 0.169 0.169 0.19 0.178 0.17 0.206 0.16 0.175 0.167 0.197 0.164 0.196 0.15 0.15 0.14 0.206 0.17 0.199 0.194 0.167 0.183 0.15 0.183 0.179 0.153 0.173 0.172 0.138 0.181 0.179 0.194 0.182 0.193 0.207 0.172 0.174 0.162 0.169 0.207 0.178 0.19 0.166 0.176 0.165 0.208 0.161 0.185 0.184 0.182 0.165 0.174 0.163 0.204 0.17 0.169 0.169 0.174 0.193 0.192 0.159 0.192 0.175 0.179 0.188 0.174 0.163 0.156 0.19 0.149 0.163 0.172 0.166 0.178 0.147 0.176 0.154 0.176 0.178 0.189 0.193 0.166 0.206 0.162 0.177 0.166 0.184 0.167 0.184 0.157 0.164 0.194 0.192 0.169 0.197 0.192 0.178 0.184 0.198 0.169 0.185 0.181 0.189 0.182 0.192 0.187 0.187 0.18 0.178 0.184 0.161 0.171 0.167 0.165 0.148 0.167 0.17 0.18 0.169 0.188 0.158 0.183 0.189 0.181 0.179 0.196 0.196 0.181 0.176 0.166 0.181 0.193 0.18 0.177 0.16 0.192 0.191 0.175 0.185 0.185 0.181 0.181 0.193 0.182 0.163 0.165 0.176 0.187 0.154 0.158 0.203 0.169 0.193 0.152 0.174 0.166 0.162 0.197 0.196 0.204 0.178 0.205 0.167 0.172 0.197 0.166 0.168 0.151 0.171 0.169 0.177 0.161 0.182 0.183 0.193 0.181 0.179 0.169 0.167 0.186 0.181 0.166 0.179 0.187 0.17 0.152 0.159 0.157 0.173 0.167 0.17 0.159 0.183 0.172 0.162 0.201 0.177 0.187 0.183 0.185 0.187 0.159 0.199 0.166 0.166 0.173 0.173 0.18 0.171 0.173 0.177 0.165 0.169 0.164 0.193 0.182 0.181 0.168 0.181 0.178 0.165 0.184 0.178 0.181 0.167 0.205 0.195 0.167 0.18 0.158 0.166 0.198 0.183 0.181 0.172 0.174 0.199 0.171 0.182 0.161 0.197 0.18 0.165 0.181 0.158 0.148 0.181 0.18 0.193 0.179 0.171 0.176 0.148 0.185 0.179 0.194 0.167 0.165 0.191 0.188 0.181 0.189 0.167 0.16 0.158 0.171 0.196 0.188 0.147 0.17 0.151 0.185 0.155 0.168 0.178 0.182 0.177 0.169 0.165 0.183 0.189 0.171 0.182 0.183 0.202 0.175 0.165 0.173 0.195 0.165 0.188 0.192 0.181 0.17 0.166 0.195 0.173 0.186 0.179 0.182 0.194 0.18 0.176 0.174 0.16 0.178 0.162 0.16 0.186 0.174 0.174 0.179 0.164 0.195 0.167 0.177 0.15 0.193 0.173 0.156 0.196 0.164 0.197 0.168 0.172 0.167 0.197 0.158 0.187 0.167 0.196 0.194 0.203 0.162 0.178 0.173 0.165 0.165 0.162 0.173 0.182 0.185 0.19 0.183 0.169 0.183 0.171 0.161 0.178 0.202 0.204 0.158 0.163 0.195 0.174 0.156 0.168 0.194 0.178 0.147 0.174 0.177 0.162 0.167 0.169 0.154 0.162 0.192 0.178 0.167 0.204 0.184 0.195 0.157 0.172 0.188 0.211 0.188 0.168 0.195 0.16 0.168 0.19 0.199 0.181 0.183 0.166 0.156 0.163 0.162 0.2 0.179 0.167 0.17 0.168 0.183 0.181 0.166 0.176 0.174 0.199 0.171 0.167 0.181 0.153 0.175 0.167 0.184 0.179 0.16 0.188 0.186 0.174 0.183 0.167 0.172 0.195 0.181 0.195 0.167 0.156 0.17 0.17 0.168 0.166 0.179 0.171 0.154 0.174 0.203 0.179 0.164 0.143 0.185 0.186 0.194 0.186 0.187 0.18 0.166 0.17 0.182 0.189 0.17 0.201 0.169 0.171 0.179 0.158 0.163 0.19 0.166 0.185 0.151 0.199 0.184 0.165 0.17 0.197 0.166 0.165 0.16 0.185 0.193 0.15 0.197 0.18 0.184 0.172 0.176 0.189 0.176 0.185 0.155 0.182 0.167 0.156 0.169 0.167 0.184 0.165 0.16 0.171 0.203 0.21 0.175 0.196 0.173 0.19 0.189 0.171 0.187 0.188 0.188 0.185 0.179 0.143 0.165 0.166 0.211 0.178 0.206 0.191 0.182 0.191 0.166 0.208 0.184 0.163 0.185 0.197 0.182 0.171 0.188 0.177 0.173 0.173 0.166 0.189 0.176 0.17 0.172 0.187 0.181 0.169 0.191 0.198 0.147 0.171 0.179 0.167 0.164 0.168 0.178 0.166 0.18 0.171 0.156 0.177 0.184 0.189 0.193 0.188 0.174 0.195 0.172 0.178 0.169 0.189 0.169 0.174 0.181 0.196 0.183 0.189 0.182 0.183 0.179 0.172 0.143 0.189 0.187 0.175 0.166 0.185 0.166 0.205 0.143 0.158 0.19 0.178 0.172 0.166 0.185 0.165 0.155 0.173 0.2 0.202 0.15 0.182 0.185 0.153 0.172 0.186 0.173 0.187 0.176 0.152 0.171 0.18 0.158 0.173 0.181 0.193 0.2 0.169 0.173 0.176 0.176 0.181 0.189 0.184 0.155 0.179 0.165 0.172 0.181 0.158 0.161 0.191 0.186 0.188 0.157 0.191 0.186 0.17 0.181 0.149 0.176 0.163 0.193 0.191 0.189 0.184 0.168 0.187 0.146 0.166 0.143 0.179 0.168 0.171 0.187 0.161 0.143 ];
% latency change    = 1
% throughput change = 1
I am thread 0
I am thread 1
I am thread 2
I am thread 3
I am thread 4
I am thread 5
I am thread 6
I am thread 7
I am thread 8
I am thread 10
I am thread 9
I am thread 11
I am thread 14
I am thread 12
I am thread I am thread 16
I am thread 1315

I am thread 17
I am thread 19
I am thread 18
I am thread 20
I am thread 21
I am thread 22
I am thread 25
I am thread 23
I am thread 24
I am thread 26
I am thread 28
I am thread 29
I am thread 27
I am thread 30
I am thread 31
0%=================================
% Average latency = 116.443
% Accepted packets = 0.1565 at node 604 (avg = 0.186701)
lat(2) = 116.443;
bins = [ 0 ...999];
freq = [ 0 376 775 408 33 6 1 0 0 0 0 2283 4900 3081 616 99 17 1 0 0 0 0 0 0 0 0 0 0 0 0 0 0 0 0 0 0 0 0 0 0 0 0 0 0 0 0 0 0 0 0 0 0 0 0 0 0 0 0 0 0 0 0 0 0 0 0 0 0 0 0 0 0 0 0 0 0 0 0 0 0 0 0 0 0 0 0 0 0 0 0 0 0 0 0 0 0 0 0 0 0 0 1246 2784 1657 331 47 14 0 0 0 0 15338 35272 25042 6762 1416 254 46 12 2 0 46011 114217 89244 31379 8312 1820 399 90 18 3 0 0 0 0 0 0 0 0 0 0 0 0 0 0 0 0 0 0 0 0 0 0 0 0 0 0 0 0 0 0 0 0 0 0 0 0 0 0 0 0 0 0 0 0 0 0 0 0 0 0 0 0 0 0 0 0 0 0 0 0 0 0 0 0 0 0 0 0 0 0 0 0 0 0 0 0 0 0 0 0 0 0 0 0 0 0 0 0 0 0 0 0 0 0 0 0 0 0 0 0 0 0 0 0 0 0 0 0 0 0 0 0 0 0 0 0 0 0 0 0 0 0 0 0 0 0 0 0 0 0 0 0 0 0 0 0 0 0 0 0 0 0 0 0 0 0 0 0 0 0 0 0 0 0 0 0 0 0 0 0 0 0 0 0 0 0 0 0 0 0 0 0 0 0 0 0 0 0 0 0 0 0 0 0 0 0 0 0 0 0 0 0 0 0 0 0 0 0 0 0 0 0 0 0 0 0 0 0 0 0 0 0 0 0 0 0 0 0 0 0 0 0 0 0 0 0 0 0 0 0 0 0 0 0 0 0 0 0 0 0 0 0 0 0 0 0 0 0 0 0 0 0 0 0 0 0 0 0 0 0 0 0 0 0 0 0 0 0 0 0 0 0 0 0 0 0 0 0 0 0 0 0 0 0 0 0 0 0 0 0 0 0 0 0 0 0 0 0 0 0 0 0 0 0 0 0 0 0 0 0 0 0 0 0 0 0 0 0 0 0 0 0 0 0 0 0 0 0 0 0 0 0 0 0 0 0 0 0 0 0 0 0 0 0 0 0 0 0 0 0 0 0 0 0 0 0 0 0 0 0 0 0 0 0 0 0 0 0 0 0 0 0 0 0 0 0 0 0 0 0 0 0 0 0 0 0 0 0 0 0 0 0 0 0 0 0 0 0 0 0 0 0 0 0 0 0 0 0 0 0 0 0 0 0 0 0 0 0 0 0 0 0 0 0 0 0 0 0 0 0 0 0 0 0 0 0 0 0 0 0 0 0 0 0 0 0 0 0 0 0 0 0 0 0 0 0 0 0 0 0 0 0 0 0 0 0 0 0 0 0 0 0 0 0 0 0 0 0 0 0 0 0 0 0 0 0 0 0 0 0 0 0 0 0 0 0 0 0 0 0 0 0 0 0 0 0 0 0 0 0 0 0 0 0 0 0 0 0 0 0 0 0 0 0 0 0 0 0 0 0 0 0 0 0 0 0 0 0 0 0 0 0 0 0 0 0 0 0 0 0 0 0 0 0 0 0 0 0 0 0 0 0 0 0 0 0 0 0 0 0 0 0 0 0 0 0 0 0 0 0 0 0 0 0 0 0 0 0 0 0 0 0 0 0 0 0 0 0 0 0 0 0 0 0 0 0 0 0 0 0 0 0 0 0 0 0 0 0 0 0 0 0 0 0 0 0 0 0 0 0 0 0 0 0 0 0 0 0 0 0 0 0 0 0 0 0 0 0 0 0 0 0 0 0 0 0 0 0 0 0 0 0 0 0 0 0 0 0 0 0 0 0 0 0 0 0 0 0 0 0 0 0 0 0 0 0 0 0 0 0 0 0 0 0 0 0 0 0 0 0 0 0 0 0 0 0 0 0 0 0 0 0 0 0 0 0 0 0 0 0 0 0 0 0 0 0 0 0 0 0 0 0 0 0 0 0 0 0 0 0 0 0 0 0 0 0 0 0 0 0 0 0 0 0 0 0 0 0 0 0 0 0 0 0 0 0 0 0 0 0 0 0 0 0 0 0 0 0 0 0 0 0 0 0 0 0 0 0 0 0 0 0 0 0 0 0 0 0 0 0 0 0 0 0 0 0 0 0 0 0 0 0 0 0 0 0 0 0 0 0 0 0 0 0 0 0 0 0 0 0 0 0 0 0 0 0 0 0 0 0 0 0 0 0 0 0 0 0 0 0 0 0 0 0 0 0 0 0 0 0 0 0 0 0 0 0 0 0 0 ];
thru(2,:) = [ 0.1825 0.1895 0.1815 0.165 0.18 0.1935 0.1795 0.175 0.1905 0.183 0.193 0.192 0.1885 0.1825 0.172 0.1865 0.1945 0.19 0.1825 0.1665 0.18 0.1765 0.1755 0.198 0.194 0.1755 0.1695 0.1915 0.1765 0.191 0.198 0.184 0.1975 0.207 0.201 0.179 0.1965 0.1975 0.1865 0.174 0.1875 0.1915 0.1845 0.1835 0.1865 0.2035 0.207 0.1915 0.1855 0.178 0.187 0.1675 0.192 0.2 0.182 0.1895 0.1825 0.168 0.1845 0.198 0.1815 0.2 0.1875 0.198 0.1895 0.2075 0.1805 0.188 0.1725 0.1895 0.1665 0.198 0.177 0.186 0.163 0.1785 0.191 0.172 0.1825 0.186 0.1785 0.1875 0.189 0.18 0.1815 0.181 0.194 0.179 0.1845 0.1765 0.193 0.1895 0.192 0.1865 0.193 0.1725 0.1745 0.2055 0.191 0.194 0.1715 0.1875 0.1785 0.177 0.1935 0.1915 0.1815 0.1755 0.178 0.1765 0.1925 0.1965 0.204 0.181 0.1855 0.18 0.192 0.183 0.187 0.1975 0.1855 0.2075 0.2045 0.192 0.189 0.1805 0.1855 0.192 0.196 0.1845 0.181 0.19 0.1875 0.185 0.2125 0.1775 0.1945 0.181 0.184 0.1695 0.196 0.1735 0.218 0.1745 0.1825 0.1925 0.211 0.1695 0.182 0.2 0.1775 0.1875 0.18 0.1725 0.176 0.199 0.1665 0.176 0.182 0.189 0.188 0.1975 0.1955 0.1755 0.194 0.1805 0.188 0.1855 0.1835 0.218 0.1775 0.2 0.1825 0.18 0.1915 0.1865 0.1875 0.1875 0.189 0.1845 0.171 0.1835 0.181 0.1965 0.1905 0.1835 0.1795 0.193 0.1805 0.2065 0.2165 0.182 0.1835 0.196 0.188 0.2035 0.193 0.1705 0.181 0.1765 0.1875 0.1975 0.172 0.1845 0.202 0.1915 0.1855 0.1835 0.1765 0.184 0.1965 0.165 0.189 0.176 0.2 0.191 0.1955 0.199 0.157 0.183 0.203 0.1825 0.188 0.2005 0.1805 0.197 0.1965 0.1735 0.189 0.207 0.1655 0.172 0.192 0.1775 0.19 0.1895 0.1815 0.1905 0.1735 0.174 0.1965 0.1825 0.2065 0.179 0.1855 0.174 0.196 0.181 0.1795 0.1765 0.179 0.1775 0.185 0.183 0.199 0.1915 0.2025 0.182 0.1995 0.1955 0.1925 0.202 0.1675 0.1855 0.1945 0.1885 0.191 0.177 0.18 0.1785 0.1725 0.176 0.183 0.201 0.196 0.187 0.188 0.1725 0.187 0.1865 0.164 0.1805 0.1755 0.1805 0.18 0.185 0.1925 0.187 0.1815 0.192 0.178 0.1785 0.1925 0.1805 0.174 0.1705 0.186 0.1705 0.1875 0.1815 0.181 0.206 0.202 0.188 0.2055 0.189 0.178 0.208 0.1985 0.168 0.198 0.179 0.195 0.184 0.18 0.1605 0.1795 0.186 0.1745 0.192 0.1875 0.191 0.1845 0.172 0.1805 0.171 0.166 0.1835 0.1945 0.1795 0.1845 0.2125 0.175 0.194 0.1985 0.1965 0.1905 0.1965 0.18 0.193 0.187 0.206 0.1955 0.177 0.1845 0.192 0.1745 0.1635 0.1905 0.1845 0.179 0.1715 0.1755 0.184 0.1765 0.185 0.193 0.192 0.186 0.177 0.1715 0.1795 0.1905 0.2 0.179 0.187 0.1905 0.1935 0.1815 0.175 0.187 0.194 0.168 0.171 0.1885 0.1575 0.1885 0.2035 0.188 0.197 0.1915 0.2045 0.1835 0.191 0.191 0.1915 0.165 0.187 0.1885 0.172 0.179 0.173 0.1695 0.21 0.1975 0.183 0.2085 0.1815 0.182 0.191 0.203 0.1785 0.173 0.1845 0.1715 0.1945 0.1925 0.212 0.1975 0.177 0.192 0.192 0.191 0.1895 0.189 0.188 0.1955 0.1695 0.19 0.192 0.1995 0.195 0.1825 0.19 0.169 0.187 0.2005 0.1815 0.1915 0.177 0.2035 0.162 0.1935 0.166 0.1835 0.17 0.201 0.175 0.1815 0.186 0.1865 0.2075 0.1735 0.194 0.2005 0.173 0.19 0.179 0.1665 0.1955 0.204 0.1995 0.1965 0.1975 0.192 0.177 0.1985 0.18 0.1815 0.205 0.199 0.1775 0.1815 0.178 0.1965 0.201 0.1815 0.188 0.1875 0.1815 0.18 0.186 0.175 0.2 0.1895 0.186 0.1845 0.192 0.206 0.1825 0.1865 0.204 0.1855 0.181 0.1885 0.1895 0.18 0.1825 0.202 0.1645 0.1865 0.193 0.1865 0.176 0.1755 0.1835 0.1895 0.1835 0.185 0.1725 0.1915 0.1865 0.197 0.1745 0.188 0.177 0.1875 0.1815 0.19 0.1815 0.178 0.1975 0.2005 0.182 0.208 0.188 0.193 0.1885 0.1975 0.1655 0.1935 0.2095 0.196 0.196 0.1895 0.1845 0.201 0.1845 0.1835 0.19 0.1735 0.18 0.1855 0.178 0.179 0.165 0.1735 0.1845 0.185 0.194 0.183 0.189 0.1915 0.203 0.198 0.191 0.201 0.1915 0.175 0.1835 0.1935 0.1985 0.1975 0.1935 0.16 0.1875 0.1735 0.1805 0.177 0.188 0.194 0.178 0.1795 0.1975 0.1835 0.171 0.196 0.1935 0.186 0.1805 0.1965 0.18 0.195 0.1665 0.1955 0.169 0.1775 0.1865 0.2035 0.1995 0.1955 0.2 0.1815 0.179 0.2035 0.186 0.188 0.1715 0.1925 0.1825 0.1925 0.1845 0.2045 0.1935 0.2005 0.195 0.1735 0.187 0.1805 0.1785 0.1835 0.175 0.2055 0.1955 0.1565 0.1875 0.1635 0.176 0.1745 0.1885 0.194 0.165 0.1845 0.1955 0.1835 0.196 0.178 0.1955 0.182 0.1945 0.199 0.17 0.211 0.188 0.176 0.1895 0.1845 0.1895 0.1775 0.1895 0.187 0.1775 0.1825 0.177 0.18 0.1815 0.1955 0.1915 0.196 0.178 0.1805 0.186 0.1845 0.1995 0.182 0.1895 0.183 0.191 0.1835 0.1745 0.18 0.2005 0.193 0.176 0.183 0.1885 0.2145 0.1995 0.193 0.1685 0.187 0.19 0.191 0.1885 0.181 0.1625 0.193 0.1825 0.1895 0.1915 0.1825 0.1965 0.1785 0.1905 0.184 0.2115 0.18 0.176 0.199 0.201 0.1845 0.189 0.178 0.1685 0.189 0.1985 0.1905 0.1895 0.1755 0.1875 0.1775 0.1875 0.181 0.18 0.1895 0.1935 0.177 0.1755 0.19 0.197 0.182 0.185 0.1805 0.189 0.195 0.19 0.173 0.193 0.1985 0.189 0.194 0.1865 0.1775 0.1875 0.178 0.1985 0.18 0.1785 0.1745 0.1855 0.194 0.194 0.1965 0.176 0.1645 0.185 0.1895 0.171 0.19 0.1865 0.208 0.188 0.1785 0.2055 0.166 0.1855 0.1665 0.196 0.1775 0.1695 0.194 0.1815 0.1935 0.185 0.185 0.1905 0.1885 0.165 0.19 0.179 0.197 0.1975 0.194 0.1895 0.199 0.1895 0.174 0.172 0.184 0.1765 0.18 0.207 0.1925 0.1965 0.181 0.1905 0.1945 0.183 0.194 0.201 0.2025 0.18 0.181 0.1935 0.194 0.1855 0.1705 0.1815 0.1795 0.161 0.169 0.1865 0.177 0.1825 0.188 0.1835 0.178 0.195 0.1805 0.1785 0.2 0.1865 0.208 0.1765 0.1765 0.2045 0.2105 0.181 0.176 0.1955 0.172 0.187 0.195 0.195 0.182 0.1845 0.182 0.1755 0.1915 0.183 0.207 0.198 0.1785 0.1905 0.181 0.1825 0.181 0.1805 0.201 0.194 0.201 0.2005 0.1795 0.1955 0.1665 0.1785 0.1775 0.1855 0.208 0.181 0.2055 0.201 0.1845 0.208 0.177 0.1945 0.187 0.1955 0.1965 0.189 0.191 0.176 0.1935 0.1835 0.1805 0.196 0.18 0.177 0.1795 0.2065 0.1865 0.188 0.1655 0.2035 0.193 0.214 0.2165 0.191 0.1865 0.179 0.1825 0.1775 0.185 0.1855 0.206 0.186 0.1795 0.19 0.179 0.1825 0.191 0.177 0.2 0.184 0.192 0.182 0.167 0.178 0.1855 0.189 0.193 0.1745 0.1975 0.1985 0.1745 0.198 0.192 0.191 0.178 0.191 0.2055 0.2015 0.196 0.1615 0.1855 0.1855 0.1795 0.1885 0.178 0.192 0.188 0.1735 0.182 0.194 0.1965 0.1855 0.195 0.184 0.1995 0.186 0.1825 0.1925 0.197 0.194 0.193 0.197 0.1615 0.1735 0.189 0.196 0.1835 0.202 0.19 0.182 0.193 0.178 0.215 0.2015 0.169 0.181 0.1845 0.1785 0.195 0.1985 0.184 0.1885 0.201 0.1805 0.1965 0.193 0.18 0.1875 0.193 0.1945 0.1815 0.191 0.204 0.185 0.189 0.1875 0.1745 0.1755 0.192 0.199 0.1825 0.185 0.1735 0.1725 0.1795 0.183 0.203 0.1835 0.195 0.185 0.1935 0.187 0.1805 0.189 0.1955 0.1735 0.195 0.1895 0.196 0.193 0.195 0.181 0.1845 0.189 0.1845 0.1585 0.205 0.1875 0.1905 0.1945 0.1955 0.184 0.2045 0.1665 0.1885 0.177 0.1875 0.198 0.1805 0.1885 0.175 0.1815 0.1825 0.2145 0.1935 0.1725 0.196 0.2025 0.1795 0.1885 0.194 0.198 0.1905 0.18 0.173 0.1945 0.193 0.189 0.1875 0.1885 0.1805 0.2025 0.198 0.199 0.18 0.1825 0.1845 0.2025 0.195 0.1885 0.187 0.1785 0.1815 0.1905 0.17 0.1915 0.202 0.188 0.1915 0.1795 0.188 0.1795 0.1765 0.174 0.1685 0.206 0.1815 0.1995 0.1915 0.2045 0.188 0.179 0.1965 0.172 0.1845 0.1775 0.186 0.1835 0.179 0.2 0.1695 0.1835 ];
% latency change    = 0.001824
% throughput change = 0.0591055
I am thread 0
I am thread 1
I am thread 2
I am thread 3
I am thread 4
I am thread 7
I am thread 6
I am thread 5
I am thread 8
I am thread 9
I am thread 10
I am thread 11
I am thread 13
I am thread 14
I am thread 12
I am thread 15
I am thread 16
I am thread 19
I am thread 20
I am thread 17
I am thread 18
I am thread I am thread 22
21
I am thread 23
I am thread 24
I am thread 25
I am thread 26
I am thread 27
I am thread 28
I am thread 29
I am thread 30
I am thread 31
