BEGIN Configuration File
Name: dragonflyconfig
// Dragonfly
//
// Flow co1	ntrol
//

// Total number of VCs must match the above assignments
num_vcs     = 3;

vc_buf_size = 256;

wait_for_tail_credit = 0;

//
// Router architecture
//
vc_allocator = islip; 
sw_allocator = islip;
alloc_iters  = 4;

credit_delay   = 0;
routing_delay  = 0;
vc_alloc_delay = 0;
sw_alloc_delay = 0;
st_final_delay = 0;

input_speedup     = 1;
output_speedup    = 1;
internal_speedup  = 1.7;


//iq_routing_delay = 0;
//row_routing_delay = 0;
//subsw_alloc_delay = 0;
//out_alloc_delay = 0;

warmup_periods = 3;
sim_count          = 1;

sample_period  = 1000;  


routing_function = min;

priority = none;
traffic       = uniform ;

injection_rate =0.2;
const_flits_per_packet = 1;

topology = dragonflynew;

k  = 4;
n  = 1;


END Configuration File
 Dragonfly 
 p = 4 n = 1
 each switch - total radix =  15
 # of switches = 264
 # of channels = 2904
 # of sources = 1056
 # of nodes ( size of network ) = 1056
 # of groups (_g) = 33
 # of routers per group (_a) = 8
Done links
Unable to open flit watch file, continuing with simulation
I am thread 0
I am thread 1
I am thread 2
I am thread 3
0%=================================
% Average latency = 116.342
% Accepted packets = 0.123 at node 582 (avg = 0.173686)
lat(1) = 116.342;
bins = [ 0 ...999];
freq = [ 0 0 751 61 7 2 0 0 0 0 0 3 4374 805 115 20 5 0 0 0 0 0 0 0 0 0 0 0 0 0 0 0 0 0 0 0 0 0 0 0 0 0 0 0 0 0 0 0 0 0 0 0 0 0 0 0 0 0 0 0 0 0 0 0 0 0 0 0 0 0 0 0 0 0 0 0 0 0 0 0 0 0 0 0 0 0 0 0 0 0 0 0 0 0 0 0 0 0 0 0 0 0 2228 428 52 7 0 0 1 0 0 15 27669 8947 1953 343 58 10 4 1 0 39 80990 39190 11661 2841 670 131 20 7 1 2 1 0 0 0 0 0 0 0 0 0 0 0 0 0 0 0 0 0 0 0 0 0 0 0 0 0 0 0 0 0 0 0 0 0 0 0 0 0 0 0 0 0 0 0 0 0 0 0 0 0 0 0 0 0 0 0 0 0 0 0 0 0 0 0 0 0 0 0 0 0 0 0 0 0 0 0 0 0 0 0 0 0 0 0 0 0 0 0 0 0 0 0 0 0 0 0 0 0 0 0 0 0 0 0 0 0 0 0 0 0 0 0 0 0 0 0 0 0 0 0 0 0 0 0 0 0 0 0 0 0 0 0 0 0 0 0 0 0 0 0 0 0 0 0 0 0 0 0 0 0 0 0 0 0 0 0 0 0 0 0 0 0 0 0 0 0 0 0 0 0 0 0 0 0 0 0 0 0 0 0 0 0 0 0 0 0 0 0 0 0 0 0 0 0 0 0 0 0 0 0 0 0 0 0 0 0 0 0 0 0 0 0 0 0 0 0 0 0 0 0 0 0 0 0 0 0 0 0 0 0 0 0 0 0 0 0 0 0 0 0 0 0 0 0 0 0 0 0 0 0 0 0 0 0 0 0 0 0 0 0 0 0 0 0 0 0 0 0 0 0 0 0 0 0 0 0 0 0 0 0 0 0 0 0 0 0 0 0 0 0 0 0 0 0 0 0 0 0 0 0 0 0 0 0 0 0 0 0 0 0 0 0 0 0 0 0 0 0 0 0 0 0 0 0 0 0 0 0 0 0 0 0 0 0 0 0 0 0 0 0 0 0 0 0 0 0 0 0 0 0 0 0 0 0 0 0 0 0 0 0 0 0 0 0 0 0 0 0 0 0 0 0 0 0 0 0 0 0 0 0 0 0 0 0 0 0 0 0 0 0 0 0 0 0 0 0 0 0 0 0 0 0 0 0 0 0 0 0 0 0 0 0 0 0 0 0 0 0 0 0 0 0 0 0 0 0 0 0 0 0 0 0 0 0 0 0 0 0 0 0 0 0 0 0 0 0 0 0 0 0 0 0 0 0 0 0 0 0 0 0 0 0 0 0 0 0 0 0 0 0 0 0 0 0 0 0 0 0 0 0 0 0 0 0 0 0 0 0 0 0 0 0 0 0 0 0 0 0 0 0 0 0 0 0 0 0 0 0 0 0 0 0 0 0 0 0 0 0 0 0 0 0 0 0 0 0 0 0 0 0 0 0 0 0 0 0 0 0 0 0 0 0 0 0 0 0 0 0 0 0 0 0 0 0 0 0 0 0 0 0 0 0 0 0 0 0 0 0 0 0 0 0 0 0 0 0 0 0 0 0 0 0 0 0 0 0 0 0 0 0 0 0 0 0 0 0 0 0 0 0 0 0 0 0 0 0 0 0 0 0 0 0 0 0 0 0 0 0 0 0 0 0 0 0 0 0 0 0 0 0 0 0 0 0 0 0 0 0 0 0 0 0 0 0 0 0 0 0 0 0 0 0 0 0 0 0 0 0 0 0 0 0 0 0 0 0 0 0 0 0 0 0 0 0 0 0 0 0 0 0 0 0 0 0 0 0 0 0 0 0 0 0 0 0 0 0 0 0 0 0 0 0 0 0 0 0 0 0 0 0 0 0 0 0 0 0 0 0 0 0 0 0 0 0 0 0 0 0 0 0 0 0 0 0 0 0 0 0 0 0 0 0 0 0 0 0 0 0 0 0 0 0 0 0 0 0 0 0 0 0 0 0 0 0 0 0 0 0 0 0 0 0 0 0 0 0 0 0 0 0 0 0 0 0 0 0 0 0 0 0 0 0 0 0 0 0 0 0 0 0 0 0 0 0 0 0 0 0 0 0 0 0 0 0 0 0 0 0 0 0 0 0 0 0 0 0 0 0 0 0 0 0 0 0 0 0 0 0 0 0 0 0 0 0 0 0 0 0 0 0 0 0 0 0 0 0 0 0 0 0 0 0 0 0 0 0 0 0 ];
thru(1,:) = [ 0.171 0.163 0.15 0.141 0.171 0.187 0.186 0.176 0.184 0.171 0.179 0.177 0.181 0.187 0.195 0.176 0.17 0.182 0.162 0.183 0.185 0.169 0.167 0.17 0.187 0.171 0.173 0.189 0.183 0.181 0.145 0.191 0.146 0.17 0.17 0.184 0.162 0.198 0.145 0.162 0.166 0.138 0.179 0.173 0.167 0.165 0.185 0.175 0.19 0.175 0.158 0.146 0.172 0.2 0.175 0.204 0.182 0.167 0.194 0.174 0.156 0.16 0.19 0.168 0.164 0.173 0.155 0.159 0.162 0.144 0.167 0.167 0.161 0.169 0.16 0.151 0.194 0.165 0.152 0.178 0.175 0.185 0.176 0.18 0.165 0.18 0.141 0.15 0.188 0.185 0.163 0.166 0.158 0.19 0.167 0.176 0.186 0.188 0.191 0.183 0.176 0.161 0.163 0.193 0.19 0.147 0.176 0.202 0.181 0.187 0.17 0.155 0.193 0.174 0.193 0.172 0.191 0.204 0.177 0.186 0.173 0.197 0.162 0.186 0.17 0.132 0.185 0.147 0.142 0.181 0.153 0.183 0.159 0.173 0.189 0.173 0.19 0.181 0.155 0.193 0.17 0.167 0.202 0.161 0.177 0.181 0.158 0.162 0.163 0.165 0.152 0.146 0.178 0.172 0.19 0.189 0.167 0.169 0.193 0.167 0.173 0.167 0.181 0.174 0.191 0.152 0.189 0.196 0.163 0.179 0.143 0.157 0.184 0.172 0.193 0.178 0.177 0.213 0.16 0.186 0.182 0.172 0.18 0.212 0.177 0.173 0.149 0.193 0.172 0.147 0.16 0.177 0.186 0.16 0.194 0.144 0.166 0.157 0.162 0.201 0.188 0.172 0.168 0.181 0.183 0.195 0.178 0.137 0.176 0.178 0.195 0.169 0.201 0.191 0.164 0.156 0.167 0.181 0.178 0.147 0.179 0.161 0.165 0.178 0.178 0.156 0.136 0.172 0.164 0.178 0.157 0.168 0.164 0.217 0.167 0.214 0.14 0.16 0.167 0.178 0.175 0.181 0.192 0.179 0.156 0.174 0.165 0.173 0.212 0.178 0.163 0.164 0.184 0.176 0.201 0.158 0.187 0.212 0.169 0.152 0.159 0.146 0.142 0.179 0.185 0.183 0.21 0.184 0.146 0.15 0.178 0.186 0.183 0.214 0.16 0.198 0.183 0.178 0.136 0.15 0.187 0.188 0.139 0.201 0.187 0.171 0.147 0.174 0.171 0.167 0.164 0.163 0.145 0.158 0.174 0.183 0.175 0.166 0.2 0.16 0.166 0.171 0.183 0.187 0.189 0.167 0.212 0.173 0.156 0.185 0.188 0.152 0.183 0.185 0.177 0.17 0.18 0.184 0.17 0.164 0.164 0.151 0.166 0.158 0.156 0.162 0.151 0.167 0.194 0.171 0.185 0.177 0.154 0.171 0.176 0.156 0.214 0.137 0.211 0.189 0.166 0.199 0.179 0.202 0.167 0.2 0.172 0.18 0.188 0.174 0.165 0.155 0.157 0.165 0.178 0.146 0.188 0.166 0.165 0.205 0.183 0.174 0.184 0.191 0.16 0.163 0.148 0.157 0.184 0.189 0.174 0.194 0.187 0.189 0.178 0.167 0.182 0.178 0.148 0.189 0.165 0.179 0.157 0.157 0.145 0.176 0.184 0.178 0.178 0.194 0.151 0.151 0.19 0.138 0.193 0.153 0.204 0.178 0.179 0.165 0.195 0.169 0.165 0.153 0.173 0.156 0.177 0.148 0.174 0.16 0.179 0.155 0.178 0.171 0.144 0.18 0.189 0.178 0.178 0.168 0.173 0.155 0.191 0.171 0.182 0.156 0.172 0.174 0.159 0.2 0.18 0.193 0.173 0.167 0.17 0.169 0.169 0.155 0.2 0.173 0.171 0.202 0.191 0.186 0.184 0.153 0.166 0.181 0.161 0.177 0.19 0.172 0.161 0.172 0.181 0.172 0.185 0.177 0.186 0.175 0.17 0.18 0.192 0.156 0.174 0.17 0.179 0.178 0.164 0.186 0.178 0.165 0.195 0.198 0.163 0.161 0.162 0.192 0.178 0.191 0.167 0.167 0.174 0.173 0.176 0.172 0.168 0.138 0.158 0.179 0.179 0.16 0.174 0.176 0.189 0.173 0.194 0.177 0.177 0.168 0.152 0.177 0.143 0.175 0.167 0.191 0.172 0.175 0.21 0.199 0.198 0.152 0.177 0.192 0.167 0.169 0.177 0.17 0.214 0.152 0.155 0.163 0.162 0.153 0.167 0.214 0.164 0.208 0.158 0.187 0.183 0.197 0.2 0.191 0.202 0.17 0.17 0.16 0.2 0.146 0.183 0.168 0.164 0.167 0.167 0.176 0.16 0.161 0.169 0.171 0.191 0.152 0.16 0.163 0.192 0.141 0.186 0.163 0.161 0.172 0.177 0.163 0.187 0.189 0.173 0.171 0.192 0.184 0.164 0.184 0.157 0.182 0.159 0.165 0.158 0.187 0.184 0.174 0.18 0.148 0.163 0.174 0.123 0.155 0.17 0.167 0.184 0.196 0.153 0.174 0.155 0.167 0.154 0.158 0.192 0.124 0.17 0.207 0.178 0.168 0.172 0.158 0.142 0.17 0.198 0.198 0.172 0.184 0.164 0.158 0.168 0.164 0.208 0.179 0.185 0.166 0.167 0.175 0.141 0.148 0.152 0.194 0.158 0.174 0.167 0.15 0.197 0.178 0.178 0.184 0.188 0.187 0.162 0.143 0.182 0.193 0.173 0.167 0.158 0.199 0.152 0.205 0.173 0.188 0.169 0.179 0.168 0.184 0.172 0.163 0.202 0.189 0.192 0.181 0.194 0.136 0.196 0.161 0.183 0.177 0.184 0.147 0.162 0.199 0.179 0.17 0.18 0.159 0.161 0.172 0.176 0.172 0.169 0.208 0.189 0.177 0.16 0.188 0.202 0.154 0.169 0.151 0.186 0.202 0.2 0.159 0.173 0.201 0.158 0.159 0.152 0.192 0.165 0.179 0.153 0.171 0.162 0.162 0.173 0.156 0.18 0.18 0.184 0.187 0.172 0.163 0.159 0.191 0.177 0.168 0.16 0.166 0.176 0.199 0.192 0.142 0.184 0.183 0.18 0.169 0.175 0.163 0.187 0.199 0.196 0.182 0.188 0.179 0.197 0.188 0.142 0.189 0.174 0.192 0.173 0.176 0.174 0.183 0.166 0.166 0.179 0.187 0.198 0.18 0.196 0.163 0.159 0.172 0.171 0.156 0.17 0.176 0.195 0.182 0.164 0.184 0.175 0.186 0.163 0.164 0.2 0.188 0.154 0.163 0.18 0.149 0.179 0.183 0.179 0.163 0.195 0.207 0.148 0.197 0.151 0.155 0.17 0.143 0.18 0.188 0.169 0.16 0.202 0.158 0.162 0.169 0.169 0.181 0.168 0.165 0.187 0.15 0.183 0.156 0.155 0.17 0.178 0.166 0.177 0.183 0.181 0.176 0.174 0.188 0.153 0.18 0.185 0.178 0.152 0.18 0.164 0.162 0.213 0.187 0.154 0.165 0.162 0.166 0.176 0.184 0.173 0.189 0.165 0.178 0.17 0.175 0.172 0.169 0.17 0.183 0.174 0.177 0.179 0.187 0.161 0.198 0.192 0.173 0.187 0.157 0.184 0.148 0.188 0.171 0.188 0.169 0.152 0.194 0.186 0.186 0.16 0.163 0.19 0.168 0.178 0.153 0.186 0.159 0.197 0.177 0.161 0.159 0.165 0.193 0.181 0.166 0.169 0.162 0.189 0.173 0.179 0.158 0.157 0.178 0.157 0.191 0.159 0.184 0.173 0.166 0.192 0.167 0.199 0.163 0.17 0.193 0.185 0.215 0.185 0.178 0.155 0.169 0.18 0.151 0.159 0.142 0.13 0.176 0.188 0.174 0.158 0.147 0.17 0.171 0.186 0.164 0.153 0.148 0.166 0.156 0.187 0.164 0.167 0.186 0.199 0.152 0.163 0.162 0.178 0.164 0.187 0.197 0.157 0.163 0.159 0.185 0.177 0.168 0.169 0.154 0.17 0.193 0.153 0.165 0.175 0.171 0.148 0.2 0.197 0.213 0.171 0.165 0.152 0.165 0.173 0.152 0.178 0.174 0.182 0.156 0.17 0.168 0.18 0.174 0.175 0.154 0.176 0.182 0.153 0.185 0.179 0.17 0.154 0.15 0.184 0.185 0.155 0.178 0.2 0.183 0.159 0.173 0.193 0.164 0.178 0.189 0.193 0.18 0.185 0.172 0.164 0.174 0.167 0.151 0.201 0.174 0.167 0.166 0.165 0.169 0.18 0.159 0.2 0.182 0.186 0.175 0.177 0.199 0.168 0.168 0.173 0.183 0.191 0.176 0.163 0.175 0.173 0.172 0.182 0.196 0.155 0.191 0.202 0.173 0.167 0.18 0.169 0.178 0.156 0.168 0.163 0.188 0.177 0.191 0.158 0.192 0.175 0.198 0.187 0.188 0.175 0.175 0.186 0.166 0.187 0.154 0.177 0.169 0.158 0.168 0.201 0.172 0.171 0.184 0.19 0.155 0.164 0.164 0.143 0.181 0.184 0.155 0.194 0.18 0.182 0.181 ];
% latency change    = 1
% throughput change = 1
I am thread 0
I am thread 1
I am thread 2
I am thread 3
0%=================================
% Average latency = 116.577
% Accepted packets = 0.152 at node 502 (avg = 0.185394)
lat(2) = 116.577;
bins = [ 0 ...999];
freq = [ 0 0 1400 115 16 2 0 0 0 0 0 3 8775 1679 250 61 7 1 1 0 0 0 0 0 0 0 0 0 0 0 0 0 0 0 0 0 0 0 0 0 0 0 0 0 0 0 0 0 0 0 0 0 0 0 0 0 0 0 0 0 0 0 0 0 0 0 0 0 0 0 0 0 0 0 0 0 0 0 0 0 0 0 0 0 0 0 0 0 0 0 0 0 0 0 0 0 0 0 0 0 0 0 4768 926 150 17 2 0 1 0 0 25 58738 19314 4222 839 140 25 9 2 0 70 172482 84066 25293 6236 1505 321 66 19 3 2 1 0 0 0 0 0 0 0 0 0 0 0 0 0 0 0 0 0 0 0 0 0 0 0 0 0 0 0 0 0 0 0 0 0 0 0 0 0 0 0 0 0 0 0 0 0 0 0 0 0 0 0 0 0 0 0 0 0 0 0 0 0 0 0 0 0 0 0 0 0 0 0 0 0 0 0 0 0 0 0 0 0 0 0 0 0 0 0 0 0 0 0 0 0 0 0 0 0 0 0 0 0 0 0 0 0 0 0 0 0 0 0 0 0 0 0 0 0 0 0 0 0 0 0 0 0 0 0 0 0 0 0 0 0 0 0 0 0 0 0 0 0 0 0 0 0 0 0 0 0 0 0 0 0 0 0 0 0 0 0 0 0 0 0 0 0 0 0 0 0 0 0 0 0 0 0 0 0 0 0 0 0 0 0 0 0 0 0 0 0 0 0 0 0 0 0 0 0 0 0 0 0 0 0 0 0 0 0 0 0 0 0 0 0 0 0 0 0 0 0 0 0 0 0 0 0 0 0 0 0 0 0 0 0 0 0 0 0 0 0 0 0 0 0 0 0 0 0 0 0 0 0 0 0 0 0 0 0 0 0 0 0 0 0 0 0 0 0 0 0 0 0 0 0 0 0 0 0 0 0 0 0 0 0 0 0 0 0 0 0 0 0 0 0 0 0 0 0 0 0 0 0 0 0 0 0 0 0 0 0 0 0 0 0 0 0 0 0 0 0 0 0 0 0 0 0 0 0 0 0 0 0 0 0 0 0 0 0 0 0 0 0 0 0 0 0 0 0 0 0 0 0 0 0 0 0 0 0 0 0 0 0 0 0 0 0 0 0 0 0 0 0 0 0 0 0 0 0 0 0 0 0 0 0 0 0 0 0 0 0 0 0 0 0 0 0 0 0 0 0 0 0 0 0 0 0 0 0 0 0 0 0 0 0 0 0 0 0 0 0 0 0 0 0 0 0 0 0 0 0 0 0 0 0 0 0 0 0 0 0 0 0 0 0 0 0 0 0 0 0 0 0 0 0 0 0 0 0 0 0 0 0 0 0 0 0 0 0 0 0 0 0 0 0 0 0 0 0 0 0 0 0 0 0 0 0 0 0 0 0 0 0 0 0 0 0 0 0 0 0 0 0 0 0 0 0 0 0 0 0 0 0 0 0 0 0 0 0 0 0 0 0 0 0 0 0 0 0 0 0 0 0 0 0 0 0 0 0 0 0 0 0 0 0 0 0 0 0 0 0 0 0 0 0 0 0 0 0 0 0 0 0 0 0 0 0 0 0 0 0 0 0 0 0 0 0 0 0 0 0 0 0 0 0 0 0 0 0 0 0 0 0 0 0 0 0 0 0 0 0 0 0 0 0 0 0 0 0 0 0 0 0 0 0 0 0 0 0 0 0 0 0 0 0 0 0 0 0 0 0 0 0 0 0 0 0 0 0 0 0 0 0 0 0 0 0 0 0 0 0 0 0 0 0 0 0 0 0 0 0 0 0 0 0 0 0 0 0 0 0 0 0 0 0 0 0 0 0 0 0 0 0 0 0 0 0 0 0 0 0 0 0 0 0 0 0 0 0 0 0 0 0 0 0 0 0 0 0 0 0 0 0 0 0 0 0 0 0 0 0 0 0 0 0 0 0 0 0 0 0 0 0 0 0 0 0 0 0 0 0 0 0 0 0 0 0 0 0 0 0 0 0 0 0 0 0 0 0 0 0 0 0 0 0 0 0 0 0 0 0 0 0 0 0 0 0 0 0 0 0 0 0 0 0 0 0 0 0 0 0 0 0 0 0 0 0 0 0 0 0 0 0 0 0 0 0 0 0 0 0 0 0 0 0 0 0 0 0 0 0 0 0 0 0 0 0 0 0 0 0 0 0 0 0 0 0 0 0 0 0 0 0 0 0 0 0 0 0 0 0 0 0 0 0 0 0 0 0 0 0 0 0 0 0 0 0 0 0 ];
thru(2,:) = [ 0.169 0.1755 0.167 0.1685 0.1905 0.1975 0.198 0.1975 0.1835 0.1925 0.187 0.185 0.195 0.2035 0.178 0.197 0.185 0.187 0.1645 0.1765 0.1825 0.1905 0.1815 0.1865 0.197 0.191 0.18 0.211 0.1745 0.1905 0.1655 0.204 0.166 0.187 0.181 0.195 0.1925 0.1815 0.176 0.1795 0.187 0.164 0.203 0.178 0.1775 0.184 0.2005 0.1875 0.178 0.188 0.186 0.167 0.1755 0.1865 0.19 0.206 0.192 0.176 0.2085 0.1735 0.191 0.173 0.197 0.188 0.1785 0.192 0.1845 0.18 0.178 0.177 0.18 0.1895 0.193 0.1945 0.18 0.1695 0.1995 0.166 0.174 0.1955 0.188 0.1875 0.184 0.187 0.19 0.192 0.1805 0.172 0.189 0.1905 0.169 0.173 0.18 0.1915 0.186 0.1875 0.1865 0.186 0.192 0.186 0.181 0.18 0.181 0.184 0.2155 0.1725 0.1855 0.198 0.189 0.189 0.1865 0.1745 0.206 0.192 0.2045 0.189 0.194 0.197 0.1835 0.199 0.1865 0.1885 0.1845 0.195 0.1855 0.158 0.1925 0.1735 0.173 0.1815 0.1765 0.205 0.1885 0.193 0.186 0.174 0.2045 0.1995 0.183 0.197 0.173 0.1735 0.202 0.1835 0.2025 0.19 0.173 0.1815 0.1775 0.171 0.1795 0.1665 0.174 0.194 0.1865 0.1935 0.178 0.184 0.2015 0.1715 0.1935 0.177 0.1895 0.171 0.188 0.1705 0.191 0.1895 0.1775 0.1915 0.179 0.178 0.1885 0.1735 0.194 0.1885 0.1785 0.1965 0.179 0.197 0.1875 0.1675 0.1895 0.207 0.1815 0.2015 0.171 0.199 0.1835 0.166 0.174 0.205 0.185 0.186 0.199 0.188 0.1895 0.1755 0.1785 0.195 0.2115 0.187 0.168 0.178 0.1945 0.21 0.191 0.1795 0.204 0.1775 0.201 0.1655 0.199 0.188 0.1775 0.1835 0.176 0.1975 0.185 0.1745 0.177 0.186 0.1775 0.2005 0.1845 0.1755 0.176 0.171 0.1815 0.202 0.18 0.163 0.1875 0.2135 0.192 0.1975 0.1705 0.1775 0.186 0.1695 0.1845 0.187 0.186 0.186 0.172 0.202 0.1775 0.1905 0.202 0.1845 0.169 0.172 0.187 0.179 0.22 0.1865 0.202 0.1965 0.1865 0.173 0.18 0.168 0.159 0.182 0.1895 0.1985 0.2115 0.17 0.1735 0.1685 0.181 0.177 0.207 0.2065 0.1655 0.191 0.208 0.193 0.183 0.177 0.195 0.197 0.159 0.1955 0.2085 0.1835 0.175 0.1915 0.186 0.169 0.1825 0.173 0.173 0.1795 0.187 0.202 0.181 0.1735 0.205 0.1735 0.174 0.1795 0.196 0.1955 0.188 0.1855 0.204 0.188 0.178 0.18 0.187 0.1955 0.1885 0.191 0.178 0.174 0.1935 0.192 0.1895 0.182 0.1785 0.1845 0.1975 0.1755 0.1815 0.1665 0.187 0.1975 0.201 0.1765 0.1905 0.19 0.169 0.178 0.18 0.187 0.217 0.16 0.192 0.18 0.183 0.1975 0.1795 0.193 0.1845 0.199 0.1795 0.1955 0.1995 0.197 0.172 0.186 0.186 0.1775 0.1935 0.193 0.1985 0.1735 0.174 0.2045 0.195 0.1975 0.1955 0.1925 0.184 0.179 0.1745 0.1645 0.1835 0.201 0.1905 0.199 0.1805 0.21 0.194 0.187 0.196 0.1725 0.166 0.1905 0.1845 0.192 0.1735 0.158 0.166 0.1865 0.1875 0.19 0.1875 0.1955 0.1645 0.171 0.201 0.1675 0.1895 0.177 0.205 0.1915 0.192 0.187 0.1865 0.182 0.164 0.182 0.1785 0.1655 0.1865 0.1785 0.174 0.177 0.204 0.169 0.194 0.198 0.169 0.179 0.2155 0.1965 0.1855 0.187 0.1725 0.1745 0.2055 0.175 0.193 0.177 0.1985 0.174 0.176 0.21 0.197 0.1865 0.179 0.1835 0.183 0.1645 0.1745 0.181 0.203 0.194 0.182 0.2075 0.1775 0.1895 0.1955 0.176 0.1795 0.1815 0.1745 0.205 0.1915 0.184 0.1865 0.1835 0.1875 0.1895 0.1805 0.1875 0.1795 0.191 0.1745 0.179 0.1905 0.1845 0.1935 0.1835 0.178 0.1795 0.182 0.1845 0.175 0.19 0.189 0.1995 0.184 0.183 0.1875 0.2005 0.169 0.1945 0.1755 0.1815 0.2 0.1865 0.196 0.1865 0.1825 0.161 0.1755 0.1915 0.1995 0.1845 0.1765 0.1795 0.1955 0.1725 0.2175 0.187 0.1975 0.1795 0.173 0.1785 0.152 0.187 0.189 0.193 0.192 0.192 0.204 0.185 0.203 0.165 0.192 0.193 0.1775 0.1775 0.2015 0.1895 0.2035 0.158 0.184 0.1625 0.1705 0.1755 0.1915 0.197 0.1805 0.201 0.1935 0.201 0.1945 0.192 0.194 0.203 0.2065 0.174 0.1845 0.1805 0.21 0.1735 0.189 0.194 0.189 0.176 0.196 0.1835 0.172 0.1715 0.1935 0.182 0.204 0.1595 0.182 0.192 0.1975 0.1675 0.185 0.1925 0.182 0.198 0.19 0.1875 0.186 0.2145 0.1815 0.189 0.1915 0.1945 0.1835 0.1865 0.1915 0.1925 0.176 0.173 0.1685 0.2 0.179 0.1955 0.1795 0.177 0.1835 0.1725 0.165 0.1725 0.185 0.1865 0.1925 0.2095 0.1915 0.176 0.1785 0.1845 0.1715 0.1775 0.191 0.1565 0.186 0.2035 0.187 0.1685 0.1795 0.179 0.1525 0.1815 0.2045 0.2055 0.187 0.195 0.188 0.183 0.185 0.183 0.2005 0.1815 0.199 0.1905 0.182 0.182 0.1735 0.163 0.1705 0.185 0.163 0.1815 0.183 0.168 0.2115 0.186 0.186 0.1845 0.197 0.195 0.19 0.1645 0.183 0.203 0.182 0.1645 0.1655 0.1885 0.1725 0.2015 0.179 0.206 0.203 0.179 0.1885 0.1965 0.1835 0.1755 0.2085 0.1925 0.19 0.175 0.193 0.1605 0.2 0.1855 0.185 0.2 0.186 0.167 0.178 0.2085 0.184 0.1875 0.191 0.1765 0.179 0.1835 0.1735 0.19 0.18 0.203 0.223 0.1955 0.181 0.206 0.2035 0.1805 0.1725 0.1815 0.1915 0.21 0.1965 0.1785 0.1965 0.2195 0.1765 0.166 0.167 0.2025 0.181 0.1965 0.1695 0.183 0.1845 0.162 0.176 0.19 0.1965 0.1725 0.191 0.192 0.1675 0.1745 0.174 0.184 0.2035 0.182 0.1855 0.1905 0.193 0.187 0.1805 0.171 0.2005 0.1825 0.194 0.191 0.1715 0.18 0.183 0.2005 0.1895 0.1995 0.21 0.189 0.19 0.192 0.172 0.1965 0.1735 0.2025 0.1725 0.1765 0.178 0.2075 0.1865 0.1795 0.183 0.1975 0.193 0.1875 0.209 0.1725 0.1815 0.1865 0.1755 0.1695 0.184 0.189 0.2005 0.1965 0.1775 0.196 0.1765 0.1905 0.1875 0.1955 0.19 0.1875 0.1825 0.1905 0.194 0.1785 0.179 0.1775 0.1805 0.1755 0.1985 0.1925 0.1635 0.1735 0.1645 0.184 0.176 0.1805 0.189 0.1735 0.1775 0.177 0.185 0.1915 0.1845 0.171 0.199 0.1905 0.173 0.174 0.191 0.1745 0.186 0.1765 0.186 0.186 0.1815 0.182 0.192 0.192 0.1795 0.1915 0.1745 0.203 0.174 0.1865 0.1905 0.1895 0.1655 0.1885 0.184 0.1855 0.2105 0.1885 0.161 0.1785 0.18 0.1905 0.186 0.189 0.1835 0.192 0.174 0.1895 0.177 0.187 0.1755 0.167 0.1785 0.192 0.1815 0.177 0.185 0.1955 0.168 0.202 0.1915 0.191 0.182 0.1855 0.189 0.168 0.1945 0.1865 0.204 0.182 0.177 0.191 0.1965 0.185 0.1815 0.1715 0.183 0.169 0.1975 0.1855 0.1945 0.1725 0.1855 0.185 0.1795 0.169 0.1775 0.1985 0.181 0.171 0.186 0.175 0.1895 0.2035 0.1875 0.1765 0.1835 0.193 0.173 0.1965 0.1725 0.1915 0.173 0.18 0.192 0.189 0.199 0.179 0.189 0.197 0.181 0.2185 0.1855 0.193 0.1855 0.1895 0.1855 0.18 0.18 0.1715 0.1615 0.196 0.186 0.183 0.1745 0.1745 0.181 0.1825 0.188 0.181 0.1805 0.189 0.1825 0.1705 0.195 0.18 0.18 0.19 0.197 0.1715 0.186 0.18 0.186 0.195 0.187 0.214 0.1775 0.168 0.188 0.185 0.1715 0.1885 0.1825 0.1635 0.172 0.1985 0.1765 0.1755 0.1915 0.184 0.1795 0.188 0.2025 0.2195 0.1825 0.179 0.1565 0.1755 0.206 0.179 0.1735 0.1885 0.182 0.164 0.18 0.185 0.1965 0.1855 0.1755 0.183 0.1875 0.1925 0.163 0.1845 0.181 0.1865 0.1795 0.1665 0.2085 0.1845 0.176 0.196 0.201 0.1835 0.1795 0.171 0.1995 0.177 0.1855 0.198 0.2015 0.202 0.1975 0.1875 0.1705 0.176 0.1785 0.178 0.189 0.1815 0.166 0.1705 0.183 0.183 0.1945 0.181 0.204 0.1915 0.1865 0.186 0.178 0.185 0.1855 0.182 0.172 0.202 0.202 0.188 0.1755 0.187 0.176 0.1805 0.1875 0.2055 0.179 0.1995 0.203 0.192 0.187 0.1915 0.1825 0.1845 0.172 0.186 0.1835 0.2055 0.177 0.1875 0.1815 0.179 0.17 0.2015 0.1865 0.1975 0.1825 0.1795 0.189 0.1795 0.201 0.1675 0.1895 0.184 0.186 0.1985 0.2035 0.1755 0.183 0.1835 0.193 0.1715 0.1705 0.183 0.183 0.191 0.178 0.1805 0.195 0.1845 0.1975 0.184 ];
% latency change    = 0.00201535
% throughput change = 0.0631538
I am thread 0
I am thread 2
I am thread 3
I am thread 1
0%=================================
% Average latency = 116.615
% Accepted packets = 0.161 at node 595 (avg = 0.189491)
lat(3) = 116.615;
bins = [ 0 ...999];
freq = [ 0 0 2113 174 27 3 0 0 0 0 0 9 13178 2639 428 87 12 1 1 0 0 0 0 0 0 0 0 0 0 0 0 0 0 0 0 0 0 0 0 0 0 0 0 0 0 0 0 0 0 0 0 0 0 0 0 0 0 0 0 0 0 0 0 0 0 0 0 0 0 0 0 0 0 0 0 0 0 0 0 0 0 0 0 0 0 0 0 0 0 0 0 0 0 0 0 0 0 0 0 0 0 2 7375 1424 221 30 6 0 1 0 0 50 90048 29553 6495 1250 214 42 10 2 0 135 263939 129109 39074 9720 2299 491 111 27 5 2 1 0 0 0 0 0 0 0 0 0 0 0 0 0 0 0 0 0 0 0 0 0 0 0 0 0 0 0 0 0 0 0 0 0 0 0 0 0 0 0 0 0 0 0 0 0 0 0 0 0 0 0 0 0 0 0 0 0 0 0 0 0 0 0 0 0 0 0 0 0 0 0 0 0 0 0 0 0 0 0 0 0 0 0 0 0 0 0 0 0 0 0 0 0 0 0 0 0 0 0 0 0 0 0 0 0 0 0 0 0 0 0 0 0 0 0 0 0 0 0 0 0 0 0 0 0 0 0 0 0 0 0 0 0 0 0 0 0 0 0 0 0 0 0 0 0 0 0 0 0 0 0 0 0 0 0 0 0 0 0 0 0 0 0 0 0 0 0 0 0 0 0 0 0 0 0 0 0 0 0 0 0 0 0 0 0 0 0 0 0 0 0 0 0 0 0 0 0 0 0 0 0 0 0 0 0 0 0 0 0 0 0 0 0 0 0 0 0 0 0 0 0 0 0 0 0 0 0 0 0 0 0 0 0 0 0 0 0 0 0 0 0 0 0 0 0 0 0 0 0 0 0 0 0 0 0 0 0 0 0 0 0 0 0 0 0 0 0 0 0 0 0 0 0 0 0 0 0 0 0 0 0 0 0 0 0 0 0 0 0 0 0 0 0 0 0 0 0 0 0 0 0 0 0 0 0 0 0 0 0 0 0 0 0 0 0 0 0 0 0 0 0 0 0 0 0 0 0 0 0 0 0 0 0 0 0 0 0 0 0 0 0 0 0 0 0 0 0 0 0 0 0 0 0 0 0 0 0 0 0 0 0 0 0 0 0 0 0 0 0 0 0 0 0 0 0 0 0 0 0 0 0 0 0 0 0 0 0 0 0 0 0 0 0 0 0 0 0 0 0 0 0 0 0 0 0 0 0 0 0 0 0 0 0 0 0 0 0 0 0 0 0 0 0 0 0 0 0 0 0 0 0 0 0 0 0 0 0 0 0 0 0 0 0 0 0 0 0 0 0 0 0 0 0 0 0 0 0 0 0 0 0 0 0 0 0 0 0 0 0 0 0 0 0 0 0 0 0 0 0 0 0 0 0 0 0 0 0 0 0 0 0 0 0 0 0 0 0 0 0 0 0 0 0 0 0 0 0 0 0 0 0 0 0 0 0 0 0 0 0 0 0 0 0 0 0 0 0 0 0 0 0 0 0 0 0 0 0 0 0 0 0 0 0 0 0 0 0 0 0 0 0 0 0 0 0 0 0 0 0 0 0 0 0 0 0 0 0 0 0 0 0 0 0 0 0 0 0 0 0 0 0 0 0 0 0 0 0 0 0 0 0 0 0 0 0 0 0 0 0 0 0 0 0 0 0 0 0 0 0 0 0 0 0 0 0 0 0 0 0 0 0 0 0 0 0 0 0 0 0 0 0 0 0 0 0 0 0 0 0 0 0 0 0 0 0 0 0 0 0 0 0 0 0 0 0 0 0 0 0 0 0 0 0 0 0 0 0 0 0 0 0 0 0 0 0 0 0 0 0 0 0 0 0 0 0 0 0 0 0 0 0 0 0 0 0 0 0 0 0 0 0 0 0 0 0 0 0 0 0 0 0 0 0 0 0 0 0 0 0 0 0 0 0 0 0 0 0 0 0 0 0 0 0 0 0 0 0 0 0 0 0 0 0 0 0 0 0 0 0 0 0 0 0 0 0 0 0 0 0 0 0 0 0 0 0 0 0 0 0 0 0 0 0 0 0 0 0 0 0 0 0 0 0 0 0 0 0 0 0 0 0 0 0 0 0 0 0 0 0 0 0 0 0 0 0 0 0 0 0 0 0 0 0 0 0 0 0 0 0 0 0 0 0 0 0 0 0 0 0 0 0 0 0 0 0 0 0 0 0 0 0 0 0 0 0 0 0 0 0 0 0 0 0 0 0 0 0 0 0 0 0 0 0 0 0 0 0 ];
thru(3,:) = [ 0.171 0.184 0.177333 0.171667 0.190667 0.196 0.190333 0.203667 0.187667 0.198333 0.189 0.176667 0.187667 0.198667 0.173333 0.196667 0.184 0.189333 0.179 0.182333 0.194333 0.193667 0.189 0.197333 0.200333 0.190667 0.194333 0.211 0.187 0.188667 0.172667 0.205667 0.179 0.194667 0.18 0.196 0.198333 0.178333 0.183667 0.175333 0.197333 0.176333 0.195667 0.190667 0.173 0.189333 0.197333 0.184667 0.177667 0.193 0.185 0.18 0.188333 0.198 0.193333 0.201 0.190333 0.180333 0.189667 0.188 0.202667 0.184 0.2 0.186 0.179667 0.204333 0.188667 0.185667 0.192667 0.186667 0.178667 0.189333 0.201667 0.199333 0.189 0.18 0.202667 0.182 0.168667 0.202667 0.184667 0.187 0.188333 0.184667 0.182667 0.190667 0.179333 0.184667 0.192333 0.194667 0.181333 0.182 0.186333 0.197 0.180333 0.193333 0.190333 0.184333 0.178 0.178667 0.189333 0.184333 0.170333 0.190667 0.214 0.186 0.187333 0.196667 0.203667 0.187667 0.198 0.185 0.200333 0.193667 0.202 0.189 0.192333 0.202 0.188667 0.197667 0.2 0.198333 0.186333 0.194333 0.198 0.168333 0.196333 0.178 0.188333 0.189667 0.178333 0.208667 0.194333 0.188667 0.19 0.18 0.204667 0.193667 0.177333 0.194 0.183333 0.183667 0.208333 0.184667 0.202667 0.190333 0.184333 0.183333 0.180667 0.185333 0.184333 0.196 0.18 0.194 0.19 0.193667 0.191 0.189333 0.210333 0.176667 0.196333 0.18 0.198667 0.188333 0.191333 0.183667 0.192667 0.190667 0.185333 0.189 0.190333 0.186333 0.185667 0.171333 0.195667 0.184 0.188 0.203667 0.175667 0.193667 0.194333 0.182667 0.193667 0.207 0.175333 0.204333 0.175333 0.201333 0.180333 0.173667 0.181667 0.207667 0.195 0.19 0.195333 0.197 0.197 0.187333 0.193667 0.194333 0.208333 0.183 0.174667 0.191 0.202667 0.205333 0.187 0.181333 0.191 0.19 0.200667 0.172333 0.193 0.188667 0.181667 0.190333 0.188 0.193667 0.192333 0.176 0.181667 0.183 0.187 0.200667 0.19 0.182 0.183 0.176667 0.184667 0.198333 0.189667 0.178 0.194 0.206 0.2 0.199667 0.185667 0.184 0.184 0.187333 0.193 0.192 0.195 0.189667 0.180667 0.202 0.185333 0.189667 0.204333 0.201 0.181 0.173333 0.188667 0.181667 0.215 0.186333 0.211667 0.19 0.19 0.180333 0.177667 0.175 0.171 0.190333 0.183667 0.197667 0.208333 0.182667 0.181 0.175333 0.183 0.184667 0.203 0.202333 0.174 0.209333 0.211 0.200333 0.191667 0.185 0.189333 0.192667 0.168 0.209333 0.206333 0.199 0.177333 0.197333 0.201667 0.174333 0.188667 0.185 0.177 0.189667 0.183 0.204667 0.174 0.182 0.199 0.176 0.166333 0.182333 0.204 0.188333 0.192333 0.188333 0.209667 0.186333 0.184333 0.201 0.192 0.189333 0.186667 0.208667 0.184333 0.178 0.203667 0.195 0.194667 0.184667 0.184667 0.192333 0.202 0.179 0.191667 0.186 0.188 0.2 0.203333 0.192 0.189 0.190667 0.191333 0.185 0.184 0.186333 0.201 0.183 0.197 0.187333 0.171667 0.192 0.187667 0.194667 0.185333 0.188 0.190333 0.198 0.195 0.193333 0.181667 0.193667 0.196 0.193333 0.189667 0.186667 0.208667 0.186667 0.173667 0.207333 0.197667 0.194333 0.198667 0.189333 0.182 0.182333 0.192 0.179333 0.187 0.2 0.199333 0.191333 0.186 0.208667 0.187333 0.199333 0.198 0.176 0.176 0.195667 0.203333 0.191667 0.181 0.165667 0.179333 0.193667 0.189 0.198 0.192333 0.192 0.180667 0.188 0.196 0.186333 0.194667 0.177667 0.196667 0.192333 0.199 0.188 0.191 0.182667 0.177667 0.186 0.190333 0.182 0.190667 0.188333 0.170667 0.184333 0.202 0.187333 0.195333 0.199667 0.171333 0.183 0.208667 0.204 0.195333 0.196 0.182 0.183667 0.199 0.185333 0.196333 0.182 0.195667 0.184 0.187 0.199333 0.210667 0.189333 0.175333 0.187 0.192 0.178 0.189333 0.176 0.198333 0.193667 0.185667 0.210667 0.191667 0.188333 0.199 0.190333 0.179 0.187 0.184 0.199333 0.204 0.182 0.186 0.185333 0.188667 0.184 0.193 0.189 0.188667 0.197333 0.179667 0.183333 0.187 0.192 0.194 0.194333 0.180333 0.180333 0.182 0.192667 0.185667 0.195667 0.18 0.195 0.187 0.191333 0.189667 0.194667 0.182 0.199667 0.176 0.185667 0.205 0.193333 0.204333 0.182667 0.188333 0.165667 0.177 0.191 0.195 0.189333 0.193 0.184333 0.198333 0.179333 0.205667 0.192 0.200333 0.191667 0.181333 0.183 0.167 0.188 0.189667 0.206667 0.197 0.19 0.198333 0.187667 0.203333 0.174667 0.197333 0.199 0.181 0.194333 0.197 0.198 0.199 0.165333 0.178667 0.176333 0.187667 0.184667 0.193 0.188333 0.195 0.198 0.186667 0.215667 0.199333 0.187667 0.194 0.205 0.215 0.179 0.192 0.181333 0.207333 0.184 0.188 0.195333 0.192 0.176 0.197667 0.188667 0.175667 0.171333 0.201333 0.185 0.201 0.177 0.18 0.202 0.189333 0.183333 0.185 0.192667 0.188 0.199667 0.195 0.2 0.199667 0.208 0.182667 0.187 0.198333 0.183667 0.187 0.193 0.180333 0.193333 0.183333 0.186667 0.182 0.194 0.182667 0.198667 0.189 0.178 0.189667 0.17 0.186667 0.191333 0.188667 0.188667 0.205667 0.207 0.196667 0.186 0.183 0.185 0.178667 0.184667 0.199 0.161 0.185667 0.2 0.185333 0.172667 0.183333 0.181 0.166667 0.181667 0.203333 0.196333 0.178667 0.189333 0.195 0.187667 0.187 0.186 0.191333 0.181667 0.195333 0.190667 0.195667 0.185 0.187333 0.180333 0.178 0.189 0.176 0.184333 0.182667 0.176 0.199 0.188333 0.191 0.202667 0.194 0.199 0.191 0.171333 0.184 0.192 0.187667 0.174333 0.175667 0.190333 0.181667 0.197 0.185 0.193667 0.205 0.175333 0.199333 0.190333 0.193 0.176667 0.205 0.198667 0.187 0.184 0.182333 0.177 0.200333 0.194 0.185333 0.201667 0.193667 0.178333 0.177 0.204 0.190667 0.196667 0.187 0.194667 0.180667 0.187333 0.178 0.193667 0.192667 0.200667 0.213667 0.199667 0.196 0.197 0.204333 0.182333 0.185 0.188 0.186667 0.201333 0.201667 0.184333 0.202333 0.22 0.184333 0.175667 0.175333 0.190667 0.196 0.198333 0.178667 0.190333 0.187 0.177 0.176667 0.199 0.194333 0.174 0.190667 0.198 0.18 0.182667 0.186667 0.192333 0.2 0.187667 0.182333 0.211 0.197 0.188 0.178333 0.18 0.195667 0.188667 0.183333 0.188 0.177667 0.181333 0.194 0.191667 0.194 0.196 0.213333 0.201333 0.184333 0.193667 0.187333 0.195667 0.186333 0.201667 0.18 0.175667 0.179333 0.192333 0.191 0.179667 0.192667 0.203 0.206333 0.194333 0.209 0.172333 0.190667 0.191 0.186 0.181667 0.191 0.193333 0.207667 0.203 0.184 0.195 0.188 0.193667 0.190333 0.194667 0.186333 0.197 0.193333 0.195 0.185667 0.189 0.19 0.183 0.19 0.196 0.195 0.200333 0.169 0.180333 0.171 0.184667 0.177333 0.181667 0.199667 0.176667 0.171 0.181333 0.182667 0.190333 0.184667 0.192667 0.21 0.190667 0.178 0.181667 0.193667 0.186 0.193 0.184667 0.185667 0.186333 0.188333 0.182 0.188333 0.189667 0.186333 0.193333 0.182333 0.201333 0.175333 0.201 0.203667 0.189 0.178333 0.187667 0.181333 0.196 0.204 0.195667 0.182333 0.183 0.187 0.195667 0.190667 0.194333 0.193667 0.185 0.172333 0.193333 0.177333 0.184333 0.182667 0.179667 0.188 0.202667 0.196667 0.178 0.186333 0.200667 0.182333 0.212667 0.193 0.186667 0.182333 0.194 0.189667 0.172 0.203333 0.185333 0.196333 0.180333 0.186333 0.199667 0.196667 0.177 0.190333 0.178 0.19 0.174 0.198 0.181 0.2 0.177667 0.187 0.187 0.180667 0.174333 0.187667 0.199333 0.185333 0.182333 0.188667 0.182667 0.191667 0.201667 0.199 0.182333 0.192 0.192667 0.180333 0.195 0.189 0.195 0.183667 0.182 0.195333 0.191 0.202333 0.190667 0.191333 0.195 0.198 0.215 0.185667 0.192 0.187 0.192333 0.189 0.190333 0.198667 0.194 0.162667 0.196667 0.189667 0.181 0.178 0.183 0.186333 0.187333 0.188 0.175667 0.182333 0.199 0.185 0.186667 0.201667 0.189 0.192667 0.193667 0.201 0.186333 0.191333 0.177667 0.187 0.201333 0.183 0.210667 0.182333 0.172 0.185 0.193667 0.182333 0.206667 0.188 0.164667 0.178667 0.200333 0.185667 0.175333 0.199333 0.182333 0.178667 0.194333 0.196333 0.217333 0.196667 0.181333 0.171 0.183667 0.203667 0.182667 0.186333 0.192333 0.185333 0.179333 0.175 0.197667 0.201667 0.188 0.189333 0.192667 0.19 0.185667 0.185 0.205 0.179667 0.186 0.184333 0.169667 0.207667 0.188667 0.186667 0.194 0.192333 0.180333 0.183333 0.174 0.199667 0.183 0.190333 0.184333 0.196 0.201667 0.192333 0.183 0.179667 0.180667 0.173333 0.178 0.202 0.201667 0.172 0.182667 0.187 0.181333 0.198333 0.189 0.201 0.195333 0.190333 0.187667 0.186 0.185667 0.188 0.187667 0.173 0.203667 0.200667 0.191 0.189667 0.190667 0.182333 0.198667 0.194333 0.195333 0.197333 0.199 0.203 0.191667 0.183333 0.194 0.187667 0.188333 0.190667 0.195333 0.187667 0.204 0.183333 0.193333 0.196 0.172667 0.174 0.197 0.190333 0.2 0.183333 0.184333 0.189333 0.176333 0.199 0.176 0.193667 0.193333 0.196333 0.202333 0.208333 0.189333 0.185 0.180333 0.195 0.17 0.176667 0.195 0.189333 0.185333 0.189667 0.183333 0.2 0.194667 0.197667 0.201 ];
% latency change    = 0.00032875
% throughput change = 0.0216222
% Warmed up ...Time used is 3000 cycles
I am thread 0
I am thread 1
I am thread 3
I am thread 2
1%=================================
% Average latency = 116.192
% Accepted packets = 0.149 at node 473 (avg = 0.197778)
lat(4) = 116.192;
bins = [ 0 ...999];
freq = [ 0 0 732 69 7 0 0 0 0 0 0 1 4481 953 151 28 2 1 0 0 0 0 0 0 0 0 0 0 0 0 0 0 0 0 0 0 0 0 0 0 0 0 0 0 0 0 0 0 0 0 0 0 0 0 0 0 0 0 0 0 0 0 0 0 0 0 0 0 0 0 0 0 0 0 0 0 0 0 0 0 0 0 0 0 0 0 0 0 0 0 0 0 0 0 0 0 0 0 0 0 0 0 2273 438 74 12 1 0 0 0 0 17 27770 9208 2017 407 61 10 0 1 0 40 80478 39428 12025 3095 686 141 34 11 2 0 0 0 0 0 0 0 0 0 0 0 0 0 0 0 0 0 0 0 0 0 0 0 0 0 0 0 0 0 0 0 0 0 0 0 0 0 0 0 0 0 0 0 0 0 0 0 0 0 0 0 0 0 0 0 0 0 0 0 0 0 0 0 0 0 0 0 0 0 0 0 0 0 0 0 0 0 0 0 0 0 0 0 0 0 0 0 0 0 0 0 0 0 0 0 0 0 0 0 0 0 0 0 0 0 0 0 0 0 0 0 0 0 0 0 0 0 0 0 0 0 0 0 0 0 0 0 0 0 0 0 0 0 0 0 0 0 0 0 0 0 0 0 0 0 0 0 0 0 0 0 0 0 0 0 0 0 0 0 0 0 0 0 0 0 0 0 0 0 0 0 0 0 0 0 0 0 0 0 0 0 0 0 0 0 0 0 0 0 0 0 0 0 0 0 0 0 0 0 0 0 0 0 0 0 0 0 0 0 0 0 0 0 0 0 0 0 0 0 0 0 0 0 0 0 0 0 0 0 0 0 0 0 0 0 0 0 0 0 0 0 0 0 0 0 0 0 0 0 0 0 0 0 0 0 0 0 0 0 0 0 0 0 0 0 0 0 0 0 0 0 0 0 0 0 0 0 0 0 0 0 0 0 0 0 0 0 0 0 0 0 0 0 0 0 0 0 0 0 0 0 0 0 0 0 0 0 0 0 0 0 0 0 0 0 0 0 0 0 0 0 0 0 0 0 0 0 0 0 0 0 0 0 0 0 0 0 0 0 0 0 0 0 0 0 0 0 0 0 0 0 0 0 0 0 0 0 0 0 0 0 0 0 0 0 0 0 0 0 0 0 0 0 0 0 0 0 0 0 0 0 0 0 0 0 0 0 0 0 0 0 0 0 0 0 0 0 0 0 0 0 0 0 0 0 0 0 0 0 0 0 0 0 0 0 0 0 0 0 0 0 0 0 0 0 0 0 0 0 0 0 0 0 0 0 0 0 0 0 0 0 0 0 0 0 0 0 0 0 0 0 0 0 0 0 0 0 0 0 0 0 0 0 0 0 0 0 0 0 0 0 0 0 0 0 0 0 0 0 0 0 0 0 0 0 0 0 0 0 0 0 0 0 0 0 0 0 0 0 0 0 0 0 0 0 0 0 0 0 0 0 0 0 0 0 0 0 0 0 0 0 0 0 0 0 0 0 0 0 0 0 0 0 0 0 0 0 0 0 0 0 0 0 0 0 0 0 0 0 0 0 0 0 0 0 0 0 0 0 0 0 0 0 0 0 0 0 0 0 0 0 0 0 0 0 0 0 0 0 0 0 0 0 0 0 0 0 0 0 0 0 0 0 0 0 0 0 0 0 0 0 0 0 0 0 0 0 0 0 0 0 0 0 0 0 0 0 0 0 0 0 0 0 0 0 0 0 0 0 0 0 0 0 0 0 0 0 0 0 0 0 0 0 0 0 0 0 0 0 0 0 0 0 0 0 0 0 0 0 0 0 0 0 0 0 0 0 0 0 0 0 0 0 0 0 0 0 0 0 0 0 0 0 0 0 0 0 0 0 0 0 0 0 0 0 0 0 0 0 0 0 0 0 0 0 0 0 0 0 0 0 0 0 0 0 0 0 0 0 0 0 0 0 0 0 0 0 0 0 0 0 0 0 0 0 0 0 0 0 0 0 0 0 0 0 0 0 0 0 0 0 0 0 0 0 0 0 0 0 0 0 0 0 0 0 0 0 0 0 0 0 0 0 0 0 0 0 0 0 0 0 0 0 0 0 0 0 0 0 0 0 0 0 0 0 0 0 0 0 0 0 0 0 0 0 0 0 0 0 0 0 0 0 0 0 0 0 0 0 0 0 0 0 0 0 0 0 0 0 0 0 0 0 0 0 0 0 0 0 0 0 0 0 0 0 0 0 0 0 0 0 0 0 0 0 0 0 0 0 0 0 0 0 0 0 0 0 0 0 ];
thru(4,:) = [ 0.208 0.208 0.185 0.205 0.183 0.174 0.189 0.194 0.207 0.198 0.205 0.179 0.196 0.167 0.206 0.194 0.19 0.18 0.209 0.196 0.223 0.182 0.227 0.201 0.231 0.241 0.192 0.199 0.21 0.201 0.177 0.218 0.184 0.179 0.204 0.232 0.18 0.202 0.215 0.193 0.203 0.2 0.192 0.224 0.218 0.19 0.199 0.189 0.17 0.213 0.215 0.208 0.19 0.205 0.205 0.186 0.158 0.198 0.207 0.171 0.21 0.2 0.198 0.19 0.185 0.211 0.21 0.236 0.204 0.242 0.207 0.184 0.198 0.231 0.204 0.197 0.197 0.177 0.193 0.198 0.191 0.196 0.206 0.184 0.173 0.17 0.208 0.205 0.166 0.197 0.186 0.198 0.189 0.189 0.222 0.203 0.179 0.193 0.198 0.165 0.193 0.23 0.165 0.216 0.231 0.185 0.198 0.201 0.214 0.195 0.219 0.191 0.189 0.199 0.203 0.184 0.186 0.193 0.22 0.195 0.188 0.191 0.203 0.198 0.229 0.203 0.21 0.201 0.181 0.202 0.195 0.179 0.186 0.188 0.214 0.187 0.217 0.195 0.187 0.188 0.207 0.174 0.204 0.203 0.189 0.199 0.207 0.199 0.209 0.204 0.201 0.18 0.184 0.206 0.231 0.18 0.206 0.223 0.176 0.151 0.215 0.208 0.209 0.182 0.183 0.18 0.195 0.224 0.203 0.21 0.201 0.171 0.184 0.205 0.189 0.207 0.218 0.229 0.182 0.185 0.189 0.182 0.191 0.212 0.199 0.193 0.201 0.208 0.181 0.213 0.189 0.195 0.195 0.211 0.19 0.203 0.175 0.186 0.183 0.197 0.205 0.19 0.217 0.183 0.223 0.207 0.213 0.214 0.184 0.206 0.17 0.223 0.217 0.209 0.202 0.215 0.226 0.193 0.225 0.206 0.187 0.202 0.182 0.205 0.174 0.198 0.19 0.215 0.191 0.186 0.203 0.183 0.213 0.193 0.213 0.178 0.181 0.175 0.213 0.187 0.207 0.191 0.19 0.189 0.192 0.19 0.197 0.189 0.179 0.18 0.206 0.201 0.201 0.225 0.187 0.209 0.175 0.199 0.191 0.23 0.213 0.218 0.178 0.216 0.192 0.206 0.198 0.225 0.181 0.211 0.186 0.21 0.199 0.204 0.205 0.21 0.201 0.177 0.204 0.186 0.208 0.181 0.183 0.208 0.201 0.187 0.203 0.2 0.191 0.199 0.193 0.213 0.172 0.189 0.203 0.218 0.197 0.189 0.196 0.206 0.198 0.195 0.159 0.154 0.199 0.186 0.2 0.212 0.205 0.192 0.204 0.189 0.211 0.189 0.203 0.187 0.19 0.194 0.232 0.184 0.212 0.244 0.198 0.2 0.21 0.203 0.195 0.183 0.188 0.187 0.19 0.183 0.19 0.237 0.21 0.209 0.181 0.188 0.194 0.187 0.213 0.209 0.186 0.209 0.175 0.192 0.199 0.204 0.167 0.179 0.192 0.204 0.201 0.194 0.197 0.231 0.193 0.186 0.174 0.229 0.193 0.185 0.207 0.208 0.195 0.177 0.179 0.219 0.176 0.229 0.172 0.176 0.212 0.176 0.186 0.18 0.193 0.203 0.204 0.189 0.196 0.164 0.165 0.185 0.174 0.17 0.197 0.187 0.199 0.195 0.173 0.178 0.196 0.196 0.215 0.213 0.224 0.217 0.194 0.178 0.198 0.194 0.203 0.186 0.216 0.191 0.192 0.199 0.186 0.189 0.186 0.179 0.213 0.21 0.197 0.182 0.206 0.22 0.185 0.182 0.2 0.214 0.188 0.203 0.221 0.21 0.177 0.181 0.188 0.194 0.182 0.184 0.187 0.212 0.172 0.19 0.183 0.207 0.228 0.189 0.216 0.204 0.176 0.206 0.198 0.197 0.201 0.202 0.216 0.183 0.202 0.209 0.217 0.222 0.185 0.192 0.204 0.196 0.171 0.19 0.208 0.217 0.203 0.21 0.185 0.21 0.184 0.178 0.195 0.2 0.204 0.199 0.185 0.149 0.204 0.205 0.192 0.207 0.207 0.248 0.198 0.189 0.197 0.204 0.206 0.185 0.166 0.171 0.207 0.19 0.173 0.191 0.174 0.201 0.217 0.187 0.221 0.222 0.198 0.166 0.191 0.196 0.203 0.195 0.195 0.214 0.167 0.179 0.184 0.23 0.203 0.206 0.192 0.216 0.216 0.219 0.214 0.175 0.189 0.215 0.18 0.214 0.185 0.176 0.241 0.193 0.166 0.169 0.198 0.207 0.204 0.201 0.206 0.188 0.198 0.215 0.196 0.175 0.207 0.197 0.215 0.226 0.207 0.177 0.214 0.195 0.177 0.191 0.197 0.205 0.184 0.215 0.205 0.233 0.214 0.191 0.222 0.224 0.204 0.171 0.226 0.177 0.223 0.177 0.181 0.197 0.18 0.221 0.181 0.199 0.22 0.184 0.219 0.209 0.199 0.208 0.214 0.211 0.192 0.204 0.207 0.184 0.188 0.165 0.228 0.179 0.191 0.178 0.195 0.2 0.207 0.198 0.216 0.196 0.16 0.195 0.196 0.209 0.207 0.213 0.218 0.21 0.199 0.211 0.202 0.207 0.194 0.21 0.196 0.177 0.209 0.187 0.195 0.214 0.19 0.197 0.204 0.202 0.18 0.198 0.201 0.23 0.194 0.212 0.224 0.209 0.204 0.197 0.212 0.203 0.194 0.194 0.24 0.204 0.199 0.173 0.2 0.207 0.207 0.198 0.171 0.201 0.212 0.186 0.227 0.179 0.192 0.175 0.184 0.176 0.215 0.192 0.214 0.202 0.188 0.248 0.221 0.19 0.201 0.225 0.221 0.22 0.204 0.184 0.19 0.19 0.2 0.171 0.181 0.179 0.213 0.185 0.183 0.199 0.197 0.194 0.215 0.214 0.18 0.177 0.195 0.191 0.19 0.178 0.184 0.199 0.2 0.202 0.224 0.203 0.192 0.206 0.206 0.186 0.207 0.179 0.174 0.19 0.205 0.203 0.202 0.189 0.189 0.173 0.205 0.166 0.215 0.189 0.185 0.226 0.168 0.227 0.202 0.165 0.184 0.225 0.206 0.196 0.181 0.181 0.173 0.192 0.196 0.206 0.211 0.184 0.216 0.202 0.197 0.22 0.178 0.175 0.201 0.205 0.194 0.231 0.192 0.191 0.186 0.17 0.149 0.198 0.184 0.198 0.2 0.186 0.225 0.171 0.229 0.208 0.218 0.216 0.213 0.206 0.187 0.215 0.204 0.195 0.196 0.184 0.211 0.187 0.225 0.19 0.193 0.195 0.212 0.207 0.206 0.196 0.215 0.194 0.152 0.169 0.183 0.157 0.211 0.217 0.198 0.189 0.213 0.203 0.185 0.195 0.178 0.187 0.216 0.187 0.21 0.183 0.185 0.21 0.185 0.176 0.212 0.231 0.202 0.204 0.195 0.201 0.204 0.224 0.188 0.185 0.203 0.188 0.206 0.221 0.208 0.207 0.193 0.18 0.222 0.221 0.19 0.21 0.181 0.199 0.227 0.199 0.184 0.199 0.203 0.173 0.207 0.211 0.203 0.199 0.183 0.192 0.198 0.197 0.211 0.16 0.186 0.195 0.183 0.202 0.2 0.228 0.179 0.219 0.197 0.206 0.202 0.193 0.214 0.198 0.194 0.206 0.188 0.179 0.208 0.225 0.169 0.218 0.187 0.19 0.196 0.188 0.2 0.185 0.207 0.19 0.174 0.218 0.238 0.217 0.199 0.199 0.203 0.203 0.172 0.191 0.202 0.188 0.192 0.188 0.181 0.229 0.209 0.19 0.195 0.21 0.193 0.197 0.187 0.211 0.186 0.198 0.177 0.22 0.2 0.191 0.181 0.2 0.213 0.198 0.171 0.214 0.209 0.19 0.177 0.185 0.185 0.169 0.182 0.209 0.214 0.176 0.195 0.211 0.221 0.157 0.213 0.206 0.203 0.201 0.221 0.205 0.221 0.184 0.195 0.216 0.199 0.196 0.217 0.19 0.205 0.214 0.215 0.183 0.202 0.194 0.185 0.233 0.213 0.211 0.246 0.198 0.204 0.201 0.166 0.21 0.217 0.189 0.178 0.177 0.177 0.207 0.2 0.174 0.19 0.232 0.188 0.209 0.192 0.209 0.206 0.226 0.181 0.203 0.193 0.186 0.185 0.212 0.191 0.199 0.212 0.209 0.209 0.212 0.173 0.192 0.193 0.176 0.161 0.193 0.239 0.176 0.185 0.202 0.21 0.194 0.21 0.197 0.211 0.175 0.206 0.189 0.213 0.169 0.191 0.209 0.182 0.192 0.203 0.176 0.205 0.2 0.218 0.209 0.197 0.192 0.19 0.209 0.194 0.182 0.186 0.19 0.199 0.208 0.192 0.204 0.218 0.194 0.202 0.195 0.184 0.189 0.203 0.214 0.213 0.229 0.191 0.174 0.193 0.226 0.223 0.2 0.191 0.193 0.185 0.192 0.201 0.202 0.208 0.202 0.193 0.201 0.179 0.207 0.194 0.195 0.212 0.172 0.207 0.207 0.196 0.206 0.186 0.182 0.201 0.196 0.208 0.219 ];
% latency change    = 0.00363856
% throughput change = 0.0419017
I am thread 0
I am thread 2
I am thread 1
I am thread 3
1%=================================
% Average latency = 116.451
% Accepted packets = 0.158 at node 473 (avg = 0.197594)
lat(5) = 116.451;
bins = [ 0 ...999];
freq = [ 0 0 1424 126 10 3 0 0 0 0 0 5 8980 1899 306 56 5 1 0 0 0 0 0 0 0 0 0 0 0 0 0 0 0 0 0 0 0 0 0 0 0 0 0 0 0 0 0 0 0 0 0 0 0 0 0 0 0 0 0 0 0 0 0 0 0 0 0 0 0 0 0 0 0 0 0 0 0 0 0 0 0 0 0 0 0 0 0 0 0 0 0 0 0 0 0 0 0 0 0 0 0 0 4799 945 146 29 4 0 1 0 0 36 58819 19571 4242 847 127 24 6 2 1 65 172058 84456 25657 6491 1562 316 74 23 2 0 0 0 0 0 0 0 0 0 0 0 0 0 0 0 0 0 0 0 0 0 0 0 0 0 0 0 0 0 0 0 0 0 0 0 0 0 0 0 0 0 0 0 0 0 0 0 0 0 0 0 0 0 0 0 0 0 0 0 0 0 0 0 0 0 0 0 0 0 0 0 0 0 0 0 0 0 0 0 0 0 0 0 0 0 0 0 0 0 0 0 0 0 0 0 0 0 0 0 0 0 0 0 0 0 0 0 0 0 0 0 0 0 0 0 0 0 0 0 0 0 0 0 0 0 0 0 0 0 0 0 0 0 0 0 0 0 0 0 0 0 0 0 0 0 0 0 0 0 0 0 0 0 0 0 0 0 0 0 0 0 0 0 0 0 0 0 0 0 0 0 0 0 0 0 0 0 0 0 0 0 0 0 0 0 0 0 0 0 0 0 0 0 0 0 0 0 0 0 0 0 0 0 0 0 0 0 0 0 0 0 0 0 0 0 0 0 0 0 0 0 0 0 0 0 0 0 0 0 0 0 0 0 0 0 0 0 0 0 0 0 0 0 0 0 0 0 0 0 0 0 0 0 0 0 0 0 0 0 0 0 0 0 0 0 0 0 0 0 0 0 0 0 0 0 0 0 0 0 0 0 0 0 0 0 0 0 0 0 0 0 0 0 0 0 0 0 0 0 0 0 0 0 0 0 0 0 0 0 0 0 0 0 0 0 0 0 0 0 0 0 0 0 0 0 0 0 0 0 0 0 0 0 0 0 0 0 0 0 0 0 0 0 0 0 0 0 0 0 0 0 0 0 0 0 0 0 0 0 0 0 0 0 0 0 0 0 0 0 0 0 0 0 0 0 0 0 0 0 0 0 0 0 0 0 0 0 0 0 0 0 0 0 0 0 0 0 0 0 0 0 0 0 0 0 0 0 0 0 0 0 0 0 0 0 0 0 0 0 0 0 0 0 0 0 0 0 0 0 0 0 0 0 0 0 0 0 0 0 0 0 0 0 0 0 0 0 0 0 0 0 0 0 0 0 0 0 0 0 0 0 0 0 0 0 0 0 0 0 0 0 0 0 0 0 0 0 0 0 0 0 0 0 0 0 0 0 0 0 0 0 0 0 0 0 0 0 0 0 0 0 0 0 0 0 0 0 0 0 0 0 0 0 0 0 0 0 0 0 0 0 0 0 0 0 0 0 0 0 0 0 0 0 0 0 0 0 0 0 0 0 0 0 0 0 0 0 0 0 0 0 0 0 0 0 0 0 0 0 0 0 0 0 0 0 0 0 0 0 0 0 0 0 0 0 0 0 0 0 0 0 0 0 0 0 0 0 0 0 0 0 0 0 0 0 0 0 0 0 0 0 0 0 0 0 0 0 0 0 0 0 0 0 0 0 0 0 0 0 0 0 0 0 0 0 0 0 0 0 0 0 0 0 0 0 0 0 0 0 0 0 0 0 0 0 0 0 0 0 0 0 0 0 0 0 0 0 0 0 0 0 0 0 0 0 0 0 0 0 0 0 0 0 0 0 0 0 0 0 0 0 0 0 0 0 0 0 0 0 0 0 0 0 0 0 0 0 0 0 0 0 0 0 0 0 0 0 0 0 0 0 0 0 0 0 0 0 0 0 0 0 0 0 0 0 0 0 0 0 0 0 0 0 0 0 0 0 0 0 0 0 0 0 0 0 0 0 0 0 0 0 0 0 0 0 0 0 0 0 0 0 0 0 0 0 0 0 0 0 0 0 0 0 0 0 0 0 0 0 0 0 0 0 0 0 0 0 0 0 0 0 0 0 0 0 0 0 0 0 0 0 0 0 0 0 0 0 0 0 0 0 0 0 0 0 0 0 0 0 0 0 0 0 0 0 0 0 0 0 0 0 0 0 0 0 0 0 0 0 0 0 0 0 0 0 0 0 0 0 0 0 0 0 0 0 0 0 0 0 0 0 0 0 0 0 0 0 0 0 ];
thru(5,:) = [ 0.203 0.2035 0.1795 0.1995 0.191 0.18 0.1895 0.202 0.1905 0.2 0.214 0.191 0.194 0.174 0.2095 0.2025 0.204 0.1865 0.2095 0.2 0.212 0.185 0.2075 0.1935 0.22 0.219 0.1925 0.1945 0.2015 0.2085 0.189 0.226 0.2075 0.1895 0.208 0.2255 0.192 0.1925 0.2 0.2055 0.207 0.187 0.197 0.1965 0.202 0.1995 0.2045 0.197 0.183 0.213 0.208 0.204 0.189 0.191 0.2 0.1965 0.1875 0.1885 0.2005 0.193 0.193 0.2045 0.186 0.191 0.1725 0.2245 0.195 0.2035 0.202 0.2175 0.1935 0.1935 0.1955 0.214 0.213 0.201 0.19 0.197 0.2035 0.194 0.2 0.1815 0.204 0.179 0.1845 0.182 0.207 0.201 0.1815 0.1875 0.203 0.1925 0.2005 0.1935 0.2215 0.2 0.1955 0.1945 0.206 0.177 0.187 0.203 0.17 0.199 0.22 0.1955 0.202 0.191 0.216 0.186 0.202 0.1905 0.185 0.184 0.207 0.1985 0.2 0.199 0.2185 0.202 0.208 0.2 0.2015 0.198 0.2105 0.185 0.2065 0.2145 0.181 0.187 0.2055 0.197 0.1935 0.1925 0.2035 0.179 0.202 0.207 0.1865 0.198 0.2065 0.175 0.199 0.196 0.2005 0.2115 0.2 0.191 0.199 0.2105 0.196 0.19 0.19 0.1925 0.2145 0.198 0.2105 0.22 0.191 0.178 0.2075 0.215 0.204 0.1995 0.205 0.1775 0.1985 0.22 0.1895 0.2025 0.209 0.1915 0.1845 0.201 0.1935 0.207 0.195 0.223 0.19 0.1955 0.184 0.1845 0.198 0.204 0.222 0.203 0.2065 0.207 0.187 0.198 0.1885 0.182 0.2065 0.199 0.193 0.198 0.188 0.195 0.178 0.207 0.2115 0.195 0.2065 0.2025 0.218 0.185 0.202 0.2 0.1985 0.187 0.193 0.212 0.215 0.199 0.186 0.198 0.2295 0.2045 0.2065 0.212 0.187 0.202 0.189 0.216 0.187 0.192 0.189 0.205 0.202 0.181 0.2025 0.184 0.1945 0.1925 0.2055 0.189 0.184 0.195 0.221 0.18 0.198 0.1905 0.19 0.1805 0.192 0.207 0.206 0.191 0.1885 0.202 0.208 0.1975 0.19 0.204 0.1835 0.2075 0.2 0.2005 0.195 0.2145 0.208 0.2025 0.191 0.191 0.203 0.2015 0.205 0.2095 0.186 0.196 0.1985 0.215 0.193 0.204 0.1975 0.1955 0.212 0.1835 0.209 0.19 0.197 0.175 0.1845 0.189 0.2015 0.1785 0.213 0.203 0.2055 0.1965 0.1805 0.2125 0.1795 0.191 0.1955 0.211 0.184 0.189 0.199 0.211 0.1935 0.1885 0.1825 0.188 0.196 0.189 0.1925 0.191 0.2015 0.183 0.199 0.205 0.196 0.2035 0.189 0.179 0.1875 0.1905 0.2105 0.1775 0.2 0.2175 0.193 0.2005 0.202 0.1905 0.2025 0.199 0.188 0.2 0.192 0.192 0.1755 0.218 0.221 0.208 0.197 0.2045 0.1765 0.199 0.215 0.2115 0.1805 0.1955 0.1835 0.1965 0.207 0.207 0.177 0.182 0.2065 0.198 0.2015 0.188 0.205 0.1985 0.178 0.1775 0.1955 0.23 0.193 0.1925 0.1915 0.1785 0.201 0.18 0.1905 0.2105 0.208 0.2125 0.197 0.1875 0.214 0.188 0.1935 0.172 0.193 0.191 0.199 0.196 0.2045 0.1725 0.1915 0.1775 0.1805 0.175 0.2045 0.189 0.1865 0.2005 0.201 0.186 0.19 0.196 0.21 0.2025 0.2075 0.1855 0.2035 0.179 0.1945 0.192 0.1935 0.197 0.199 0.1975 0.192 0.1955 0.195 0.1945 0.193 0.1855 0.2095 0.211 0.193 0.201 0.2255 0.212 0.1965 0.187 0.208 0.218 0.202 0.195 0.208 0.2185 0.1905 0.182 0.1965 0.2035 0.188 0.198 0.189 0.217 0.191 0.199 0.182 0.2115 0.206 0.1945 0.21 0.2055 0.177 0.18 0.2 0.1995 0.1895 0.198 0.219 0.184 0.216 0.195 0.1985 0.216 0.194 0.2045 0.214 0.1805 0.1895 0.1845 0.2065 0.2215 0.192 0.196 0.2045 0.1965 0.197 0.191 0.187 0.1855 0.187 0.201 0.1925 0.158 0.207 0.198 0.1825 0.19 0.196 0.2275 0.194 0.2005 0.1915 0.1915 0.185 0.2065 0.1845 0.1965 0.192 0.196 0.1885 0.2015 0.198 0.2025 0.206 0.1945 0.199 0.1975 0.1965 0.1655 0.188 0.1935 0.1945 0.2005 0.1925 0.206 0.1945 0.1855 0.1945 0.216 0.189 0.2025 0.204 0.199 0.2135 0.214 0.2145 0.186 0.1865 0.2275 0.1895 0.1945 0.1915 0.1825 0.211 0.195 0.1635 0.1735 0.199 0.198 0.2 0.2 0.195 0.1935 0.194 0.204 0.197 0.182 0.1975 0.2 0.225 0.209 0.207 0.1815 0.221 0.178 0.2005 0.1775 0.2045 0.1925 0.1905 0.2045 0.19 0.2135 0.204 0.1965 0.221 0.213 0.214 0.1965 0.222 0.166 0.2145 0.1865 0.1995 0.2125 0.196 0.2205 0.19 0.209 0.2175 0.1855 0.208 0.2095 0.204 0.216 0.212 0.197 0.208 0.2005 0.1985 0.2035 0.1965 0.182 0.206 0.1955 0.1805 0.2 0.2045 0.1965 0.1915 0.1935 0.198 0.1915 0.1945 0.2025 0.189 0.209 0.209 0.212 0.216 0.213 0.2075 0.195 0.208 0.196 0.205 0.2135 0.1865 0.193 0.202 0.193 0.2005 0.1995 0.19 0.198 0.1945 0.196 0.182 0.189 0.213 0.2145 0.189 0.2155 0.219 0.1965 0.1975 0.182 0.1915 0.1935 0.183 0.186 0.234 0.21 0.2005 0.1975 0.188 0.1985 0.2005 0.2065 0.173 0.2095 0.1965 0.1895 0.218 0.1885 0.1895 0.1985 0.1865 0.163 0.202 0.188 0.217 0.19 0.1875 0.215 0.2115 0.1995 0.179 0.225 0.2005 0.2025 0.1945 0.1945 0.1945 0.1885 0.198 0.201 0.1935 0.1955 0.2075 0.191 0.201 0.212 0.1935 0.1925 0.204 0.2005 0.1965 0.181 0.2055 0.205 0.189 0.187 0.2015 0.2005 0.1915 0.201 0.2155 0.1945 0.1875 0.1965 0.204 0.188 0.2 0.1885 0.1745 0.2025 0.21 0.205 0.2095 0.1905 0.1875 0.188 0.1945 0.189 0.196 0.191 0.1805 0.2135 0.184 0.216 0.2175 0.1905 0.1785 0.2135 0.2005 0.201 0.1845 0.199 0.182 0.1965 0.217 0.1985 0.188 0.186 0.2015 0.189 0.1965 0.199 0.1825 0.195 0.1895 0.1895 0.2065 0.229 0.1955 0.1955 0.1875 0.1905 0.178 0.2145 0.199 0.1965 0.1945 0.1965 0.197 0.1915 0.207 0.1995 0.211 0.184 0.207 0.2 0.183 0.2035 0.2075 0.1875 0.1925 0.2005 0.201 0.188 0.201 0.1895 0.197 0.2 0.208 0.2205 0.203 0.1915 0.215 0.203 0.182 0.187 0.1885 0.1755 0.2005 0.199 0.198 0.199 0.213 0.1965 0.1875 0.2215 0.18 0.1895 0.2195 0.1895 0.19 0.1815 0.176 0.2075 0.192 0.184 0.1885 0.2135 0.198 0.1985 0.1945 0.202 0.199 0.2235 0.203 0.181 0.212 0.1815 0.2085 0.215 0.2155 0.2045 0.18 0.191 0.215 0.21 0.1885 0.1985 0.197 0.2005 0.225 0.2125 0.199 0.2045 0.2105 0.1825 0.211 0.199 0.196 0.1815 0.1785 0.1915 0.185 0.1985 0.201 0.1895 0.196 0.188 0.1825 0.182 0.2025 0.213 0.1835 0.1925 0.205 0.2045 0.2025 0.209 0.1985 0.2115 0.1855 0.1995 0.1865 0.1885 0.193 0.206 0.1805 0.2045 0.1875 0.202 0.1905 0.195 0.199 0.196 0.21 0.1965 0.18 0.199 0.2015 0.2095 0.1975 0.2055 0.1875 0.203 0.182 0.2 0.1975 0.199 0.1845 0.194 0.1965 0.2155 0.2015 0.1825 0.223 0.19 0.201 0.1905 0.1825 0.2065 0.1875 0.2015 0.1895 0.1945 0.2025 0.1915 0.1945 0.191 0.202 0.1945 0.1755 0.2135 0.19 0.2045 0.1955 0.197 0.201 0.189 0.203 0.205 0.212 0.201 0.19 0.213 0.19 0.17 0.196 0.1985 0.1935 0.18 0.229 0.201 0.194 0.1965 0.1935 0.207 0.2 0.2065 0.207 0.1905 0.2015 0.205 0.2005 0.189 0.196 0.208 0.1855 0.2165 0.203 0.197 0.2265 0.2 0.209 0.2075 0.1755 0.2145 0.2 0.1915 0.1975 0.181 0.18 0.201 0.206 0.1945 0.2085 0.2105 0.201 0.1855 0.1875 0.202 0.1975 0.2025 0.187 0.192 0.191 0.198 0.21 0.1945 0.1975 0.192 0.2135 0.2085 0.201 0.1995 0.182 0.2025 0.1775 0.192 0.185 0.196 0.2325 0.191 0.189 0.1865 0.2065 0.215 0.2165 0.188 0.205 0.1985 0.1995 0.1955 0.2185 0.171 0.1865 0.2065 0.1905 0.21 0.1925 0.185 0.2015 0.1925 0.2235 0.2075 0.1935 0.1965 0.184 0.1955 0.187 0.1925 0.187 0.192 0.1935 0.2015 0.2005 0.1955 0.2145 0.2055 0.1845 0.2105 0.184 0.188 0.193 0.1925 0.203 0.2025 0.194 0.2015 0.2135 0.212 0.2065 0.211 0.1925 0.182 0.194 0.178 0.19 0.2045 0.2085 0.1925 0.1905 0.195 0.1925 0.199 0.201 0.208 0.215 0.176 0.1895 0.205 0.194 0.1975 0.192 0.18 0.196 0.1985 0.1985 0.202 ];
% latency change    = 0.0022214
% throughput change = 0.000934539
I am thread 0
I am thread 2
I am thread 3
I am thread 1
1%=================================
% Average latency = 116.54
% Accepted packets = 0.163333 at node 473 (avg = 0.197638)
lat(6) = 116.54;
bins = [ 0 ...999];
freq = [ 0 0 2153 190 10 4 0 0 0 0 0 5 13387 2839 461 84 7 2 0 0 0 0 0 0 0 0 0 0 0 0 0 0 0 0 0 0 0 0 0 0 0 0 0 0 0 0 0 0 0 0 0 0 0 0 0 0 0 0 0 0 0 0 0 0 0 0 0 0 0 0 0 0 0 0 0 0 0 0 0 0 0 0 0 0 0 0 0 0 0 0 0 0 0 0 0 0 0 0 0 0 0 2 7445 1478 230 37 4 0 1 0 0 52 89941 29748 6536 1290 198 36 8 2 1 107 263736 129447 39501 9992 2351 491 108 30 2 0 0 0 0 0 0 0 0 0 0 0 0 0 0 0 0 0 0 0 0 0 0 0 0 0 0 0 0 0 0 0 0 0 0 0 0 0 0 0 0 0 0 0 0 0 0 0 0 0 0 0 0 0 0 0 0 0 0 0 0 0 0 0 0 0 0 0 0 0 0 0 0 0 0 0 0 0 0 0 0 0 0 0 0 0 0 0 0 0 0 0 0 0 0 0 0 0 0 0 0 0 0 0 0 0 0 0 0 0 0 0 0 0 0 0 0 0 0 0 0 0 0 0 0 0 0 0 0 0 0 0 0 0 0 0 0 0 0 0 0 0 0 0 0 0 0 0 0 0 0 0 0 0 0 0 0 0 0 0 0 0 0 0 0 0 0 0 0 0 0 0 0 0 0 0 0 0 0 0 0 0 0 0 0 0 0 0 0 0 0 0 0 0 0 0 0 0 0 0 0 0 0 0 0 0 0 0 0 0 0 0 0 0 0 0 0 0 0 0 0 0 0 0 0 0 0 0 0 0 0 0 0 0 0 0 0 0 0 0 0 0 0 0 0 0 0 0 0 0 0 0 0 0 0 0 0 0 0 0 0 0 0 0 0 0 0 0 0 0 0 0 0 0 0 0 0 0 0 0 0 0 0 0 0 0 0 0 0 0 0 0 0 0 0 0 0 0 0 0 0 0 0 0 0 0 0 0 0 0 0 0 0 0 0 0 0 0 0 0 0 0 0 0 0 0 0 0 0 0 0 0 0 0 0 0 0 0 0 0 0 0 0 0 0 0 0 0 0 0 0 0 0 0 0 0 0 0 0 0 0 0 0 0 0 0 0 0 0 0 0 0 0 0 0 0 0 0 0 0 0 0 0 0 0 0 0 0 0 0 0 0 0 0 0 0 0 0 0 0 0 0 0 0 0 0 0 0 0 0 0 0 0 0 0 0 0 0 0 0 0 0 0 0 0 0 0 0 0 0 0 0 0 0 0 0 0 0 0 0 0 0 0 0 0 0 0 0 0 0 0 0 0 0 0 0 0 0 0 0 0 0 0 0 0 0 0 0 0 0 0 0 0 0 0 0 0 0 0 0 0 0 0 0 0 0 0 0 0 0 0 0 0 0 0 0 0 0 0 0 0 0 0 0 0 0 0 0 0 0 0 0 0 0 0 0 0 0 0 0 0 0 0 0 0 0 0 0 0 0 0 0 0 0 0 0 0 0 0 0 0 0 0 0 0 0 0 0 0 0 0 0 0 0 0 0 0 0 0 0 0 0 0 0 0 0 0 0 0 0 0 0 0 0 0 0 0 0 0 0 0 0 0 0 0 0 0 0 0 0 0 0 0 0 0 0 0 0 0 0 0 0 0 0 0 0 0 0 0 0 0 0 0 0 0 0 0 0 0 0 0 0 0 0 0 0 0 0 0 0 0 0 0 0 0 0 0 0 0 0 0 0 0 0 0 0 0 0 0 0 0 0 0 0 0 0 0 0 0 0 0 0 0 0 0 0 0 0 0 0 0 0 0 0 0 0 0 0 0 0 0 0 0 0 0 0 0 0 0 0 0 0 0 0 0 0 0 0 0 0 0 0 0 0 0 0 0 0 0 0 0 0 0 0 0 0 0 0 0 0 0 0 0 0 0 0 0 0 0 0 0 0 0 0 0 0 0 0 0 0 0 0 0 0 0 0 0 0 0 0 0 0 0 0 0 0 0 0 0 0 0 0 0 0 0 0 0 0 0 0 0 0 0 0 0 0 0 0 0 0 0 0 0 0 0 0 0 0 0 0 0 0 0 0 0 0 0 0 0 0 0 0 0 0 0 0 0 0 0 0 0 0 0 0 0 0 0 0 0 0 0 0 0 0 0 0 0 0 0 0 0 0 0 0 0 0 0 0 0 0 0 0 0 0 0 0 0 0 0 0 0 0 0 0 0 0 0 0 0 0 0 0 0 0 0 0 0 0 0 0 ];
thru(6,:) = [ 0.204 0.198667 0.188333 0.197667 0.193333 0.188667 0.185667 0.199667 0.201333 0.200333 0.210333 0.200333 0.191 0.179 0.208 0.215 0.210667 0.185667 0.214 0.205333 0.199333 0.193 0.202667 0.200333 0.204333 0.218333 0.190333 0.196333 0.204 0.205 0.196667 0.214333 0.200667 0.187 0.203 0.221667 0.195333 0.195 0.204 0.203333 0.205667 0.194333 0.201 0.197667 0.200667 0.195333 0.200667 0.205667 0.182 0.205 0.208333 0.192667 0.184 0.195 0.209667 0.196333 0.191333 0.192 0.199 0.204333 0.201333 0.209667 0.188667 0.193 0.178333 0.206 0.196667 0.204333 0.202333 0.22 0.197667 0.195333 0.188 0.218 0.211333 0.189333 0.197667 0.200333 0.203667 0.198 0.203333 0.188 0.205667 0.180333 0.183 0.196 0.199333 0.203 0.197 0.183 0.199333 0.193667 0.199667 0.197667 0.213 0.203 0.196667 0.193333 0.201667 0.189 0.188333 0.201667 0.177667 0.201 0.210333 0.194333 0.194333 0.191667 0.203667 0.198333 0.203667 0.187 0.195 0.190667 0.208333 0.195 0.209333 0.196667 0.212667 0.204667 0.211333 0.197667 0.201333 0.199667 0.208333 0.187667 0.200333 0.213667 0.187 0.192 0.209333 0.200333 0.194333 0.201667 0.207 0.183667 0.194667 0.209 0.189667 0.202 0.206333 0.180667 0.189 0.197333 0.200667 0.21 0.205333 0.188667 0.204667 0.210667 0.195667 0.189667 0.192667 0.199667 0.211333 0.199333 0.209 0.205667 0.191 0.182 0.209667 0.203 0.203667 0.208 0.194 0.183333 0.203333 0.207333 0.196667 0.207333 0.201 0.193333 0.194333 0.196667 0.186 0.211 0.197 0.215667 0.199667 0.200667 0.188 0.184 0.203333 0.203667 0.207667 0.196333 0.204667 0.2 0.193333 0.200333 0.196667 0.194333 0.212333 0.200667 0.189333 0.196667 0.193333 0.195667 0.185333 0.210333 0.206667 0.206333 0.201333 0.201 0.209333 0.196 0.194667 0.199667 0.199 0.188667 0.188333 0.210333 0.213333 0.200333 0.191 0.194667 0.219333 0.200333 0.212667 0.217667 0.194667 0.197333 0.182333 0.222 0.197333 0.198333 0.199333 0.210667 0.198 0.186 0.204333 0.193667 0.189 0.185667 0.202333 0.197667 0.184 0.191 0.214667 0.176333 0.208333 0.202333 0.185333 0.198 0.196333 0.200667 0.204333 0.196667 0.189 0.208667 0.207667 0.195 0.194 0.193 0.197 0.201333 0.195333 0.187667 0.192 0.212 0.206667 0.193667 0.185667 0.188 0.194667 0.194667 0.201 0.205667 0.191 0.198333 0.203 0.203 0.189667 0.211667 0.189 0.201667 0.209667 0.193 0.212667 0.193 0.187 0.188667 0.191667 0.193 0.209 0.188667 0.224667 0.201333 0.196333 0.21 0.190667 0.200333 0.190667 0.192 0.193333 0.207333 0.183667 0.185667 0.197333 0.201 0.2 0.196333 0.183 0.179333 0.190333 0.198333 0.204 0.19 0.193333 0.184667 0.193667 0.201 0.191333 0.202333 0.185333 0.193667 0.185667 0.183333 0.203667 0.183333 0.202 0.206667 0.183667 0.201667 0.207667 0.191 0.211333 0.195667 0.186333 0.202 0.191667 0.188667 0.190667 0.212 0.214667 0.198667 0.198 0.199667 0.179333 0.195333 0.215333 0.204333 0.184667 0.196667 0.184 0.199667 0.22 0.201 0.183667 0.190667 0.202333 0.203667 0.201 0.192333 0.206 0.2 0.188333 0.192667 0.197333 0.208667 0.205333 0.192667 0.201333 0.195 0.194667 0.187333 0.197333 0.214667 0.201 0.209333 0.193333 0.191 0.205 0.191333 0.192333 0.174 0.191667 0.185333 0.192667 0.197667 0.197333 0.177 0.185333 0.182333 0.186333 0.184333 0.201 0.191333 0.189333 0.200333 0.198667 0.189667 0.190333 0.187333 0.205333 0.204333 0.206333 0.196 0.203333 0.192 0.190333 0.197333 0.193 0.2 0.192 0.199333 0.188333 0.205667 0.2 0.191333 0.190333 0.187 0.200667 0.199 0.189333 0.203667 0.211333 0.198667 0.201 0.191 0.205333 0.215667 0.202667 0.197667 0.193333 0.217333 0.194333 0.188 0.192667 0.197667 0.199667 0.202333 0.187 0.215667 0.192333 0.208333 0.189 0.210333 0.21 0.192333 0.213333 0.2 0.191667 0.181667 0.205667 0.2 0.197333 0.194667 0.210667 0.184667 0.213333 0.197 0.199333 0.208333 0.190667 0.208 0.209667 0.191333 0.187667 0.191667 0.198333 0.218 0.182333 0.192667 0.201667 0.188667 0.192667 0.196667 0.192 0.189333 0.191667 0.202 0.205 0.163333 0.196333 0.203 0.192 0.183 0.198 0.221667 0.189 0.204333 0.190667 0.191667 0.191333 0.194333 0.177 0.205333 0.191 0.204667 0.199333 0.213 0.197667 0.195333 0.199333 0.191667 0.192667 0.189 0.199333 0.179667 0.194667 0.196333 0.198 0.199667 0.199333 0.212333 0.188333 0.192333 0.197333 0.204333 0.191 0.194667 0.195333 0.198667 0.209 0.218667 0.203 0.176667 0.187 0.225333 0.191 0.189 0.19 0.183667 0.199333 0.2 0.173333 0.179333 0.203 0.201667 0.194667 0.197333 0.192667 0.198667 0.195333 0.212333 0.2 0.187333 0.197333 0.194333 0.222333 0.201 0.202 0.183667 0.220667 0.18 0.198 0.190333 0.197667 0.196 0.206667 0.203 0.193333 0.204667 0.196333 0.182667 0.205667 0.202667 0.214 0.202667 0.216333 0.180333 0.208333 0.193667 0.207333 0.203667 0.200333 0.212 0.190333 0.214667 0.207667 0.186333 0.201333 0.214667 0.204333 0.200333 0.198 0.197667 0.207 0.207333 0.203 0.196333 0.199 0.182333 0.198667 0.206667 0.190667 0.194667 0.2 0.192667 0.190667 0.193333 0.196 0.199667 0.206667 0.202 0.192 0.189333 0.202 0.195667 0.208667 0.209 0.208667 0.189 0.211333 0.190667 0.195333 0.209 0.188667 0.188 0.197667 0.191333 0.197333 0.196 0.198667 0.189667 0.179667 0.189333 0.189667 0.184 0.208 0.205333 0.186333 0.217667 0.216333 0.191667 0.195667 0.181667 0.192 0.195 0.196333 0.189333 0.210667 0.204 0.203 0.199 0.194333 0.194 0.197667 0.193 0.175 0.202333 0.193 0.194667 0.207 0.184667 0.190333 0.199333 0.178667 0.170667 0.198333 0.196 0.201333 0.187 0.187667 0.201 0.205333 0.198667 0.187333 0.225333 0.199 0.198 0.185333 0.183 0.2 0.187333 0.194667 0.19 0.196667 0.196333 0.205667 0.189 0.209333 0.198 0.205667 0.199333 0.197333 0.211667 0.197667 0.186333 0.197333 0.194 0.196667 0.187667 0.204667 0.197 0.183333 0.199 0.207 0.193 0.185667 0.199333 0.207 0.188 0.191667 0.197333 0.188333 0.197 0.207333 0.200667 0.212 0.196333 0.198 0.200333 0.192333 0.184667 0.188 0.199333 0.18 0.203333 0.187 0.212667 0.216667 0.197 0.179333 0.213 0.198333 0.195667 0.190333 0.189 0.179667 0.200667 0.206667 0.199667 0.198667 0.183667 0.195333 0.191 0.202333 0.196 0.184333 0.195333 0.194 0.183 0.197667 0.215667 0.198 0.193333 0.189667 0.187 0.192 0.208333 0.190333 0.200667 0.187667 0.185667 0.201 0.187667 0.208333 0.195333 0.203333 0.189333 0.211667 0.193667 0.190333 0.198667 0.204333 0.186667 0.203667 0.204 0.192667 0.184 0.209333 0.192 0.198 0.203667 0.214667 0.216667 0.198333 0.192667 0.210667 0.201 0.191 0.195667 0.203667 0.183333 0.196667 0.202 0.197333 0.202 0.207667 0.195 0.193333 0.218 0.177 0.193333 0.222667 0.188 0.196667 0.185 0.182 0.210333 0.190333 0.191667 0.199 0.212667 0.197333 0.203333 0.198333 0.203667 0.206 0.209667 0.208667 0.184667 0.216333 0.177667 0.209 0.213667 0.212 0.203667 0.185667 0.188667 0.204 0.21 0.186 0.193667 0.195333 0.203 0.215667 0.21 0.195667 0.189667 0.201667 0.189333 0.199333 0.193667 0.191333 0.184 0.184333 0.192333 0.195333 0.187333 0.197 0.190667 0.196 0.191 0.181667 0.181667 0.203667 0.199 0.183667 0.199 0.205667 0.194667 0.193667 0.209 0.193667 0.215667 0.193 0.204667 0.193 0.191667 0.196333 0.199667 0.184333 0.200667 0.192 0.201667 0.192667 0.194667 0.191 0.198667 0.208 0.191667 0.179 0.201667 0.198 0.208 0.194333 0.214 0.191 0.199333 0.185667 0.199667 0.2 0.206 0.188333 0.201 0.197667 0.210667 0.191333 0.187667 0.221 0.196667 0.202667 0.188333 0.189333 0.209333 0.189333 0.195667 0.184333 0.196 0.200333 0.186333 0.202 0.194 0.198 0.197333 0.182667 0.219667 0.202667 0.209667 0.195333 0.192667 0.196333 0.189667 0.205333 0.201333 0.211 0.200667 0.186 0.21 0.203333 0.182667 0.190667 0.192667 0.196667 0.195667 0.21 0.184667 0.19 0.197 0.195 0.211333 0.195333 0.208667 0.204667 0.201 0.198667 0.204667 0.207 0.189333 0.19 0.202667 0.192667 0.205 0.203 0.197 0.223 0.199333 0.202667 0.207333 0.185333 0.216333 0.197333 0.192667 0.184667 0.189333 0.186333 0.195 0.206667 0.2 0.209 0.207 0.189667 0.183667 0.191 0.203333 0.203 0.196333 0.190333 0.200333 0.189667 0.200667 0.197667 0.197333 0.193667 0.199667 0.204333 0.201333 0.201 0.202667 0.181333 0.194667 0.178333 0.198333 0.181 0.205 0.217 0.194333 0.185 0.188 0.203333 0.22 0.212667 0.187333 0.207 0.194333 0.193667 0.195333 0.211 0.190667 0.194 0.207333 0.197 0.209333 0.190667 0.197 0.210333 0.191 0.214333 0.213 0.197667 0.194 0.186667 0.199 0.197667 0.185333 0.197333 0.185333 0.192667 0.207667 0.203333 0.203 0.201667 0.198667 0.187333 0.206 0.195333 0.190667 0.200333 0.199 0.207 0.185667 0.186 0.199 0.200667 0.207333 0.199 0.214333 0.191333 0.189 0.198333 0.194667 0.195667 0.199 0.205333 0.204333 0.205667 0.199667 0.190333 0.208667 0.201333 0.214333 0.212 0.172667 0.191 0.194 0.198 0.194333 0.191 0.190333 0.195 0.193 0.196667 0.190667 ];
% latency change    = 0.000768216
% throughput change = 0.000222004
% Draining all recorded packets ...
% Draining remaining packets ...
Time taken is 6000 cycles
====== Traffic class 0 ======
Overall average latency = 116.54 (1 samples)
Overall average accepted rate = 0.197638 (1 samples)
Overall min accepted rate = 0.163333 (1 samples)
Average hops = 3.69033 (1202224 samples)
Total run time 44.0981
LOL 1249576 1251233
node0 1223
