BEGIN Configuration File
Name: dragonflyconfig
// Dragonfly
//
// Flow co1	ntrol
//

// Total number of VCs must match the above assignments
num_vcs     = 3;

vc_buf_size = 256;

wait_for_tail_credit = 0;

//
// Router architecture
//
vc_allocator = islip; 
sw_allocator = islip;
alloc_iters  = 4;

credit_delay   = 0;
routing_delay  = 0;
vc_alloc_delay = 0;
sw_alloc_delay = 0;
st_final_delay = 0;

input_speedup     = 1;
output_speedup    = 1;
internal_speedup  = 1.7;


//iq_routing_delay = 0;
//row_routing_delay = 0;
//subsw_alloc_delay = 0;
//out_alloc_delay = 0;

warmup_periods = 3;
sim_count          = 1;

sample_period  = 1000;  


routing_function = min;

priority = none;
traffic       = uniform ;

injection_rate =0.2;
const_flits_per_packet = 1;

topology = dragonflynew;

k  = 4;
n  = 1;


END Configuration File
 Dragonfly 
 p = 4 n = 1
 each switch - total radix =  15
 # of switches = 264
 # of channels = 2904
 # of sources = 1056
 # of nodes ( size of network ) = 1056
 # of groups (_g) = 33
 # of routers per group (_a) = 8
Done links
Unable to open flit watch file, continuing with simulation
I am thread 0
I am thread 2
I am thread 1
I am thread 4I am thread 
I am thread 5
6
I am thread 7
I am thread 3
0%=================================
% Average latency = 116.363
% Accepted packets = 0.118 at node 804 (avg = 0.17165)
lat(1) = 116.363;
bins = [ 0 ...999];
freq = [ 0 3 702 55 4 0 0 0 0 0 0 54 4339 773 141 28 3 1 0 0 0 0 0 0 0 0 0 0 0 0 0 0 0 0 0 0 0 0 0 0 0 0 0 0 0 0 0 0 0 0 0 0 0 0 0 0 0 0 0 0 0 0 0 0 0 0 0 0 0 0 0 0 0 0 0 0 0 0 0 0 0 0 0 0 0 0 0 0 0 0 0 0 0 0 0 0 0 0 0 0 0 32 2222 410 62 11 3 0 0 0 0 275 26801 8864 1946 445 87 18 3 1 0 843 76594 38671 12852 3668 1017 251 67 10 5 1 0 0 0 0 0 0 0 0 0 0 0 0 0 0 0 0 0 0 0 0 0 0 0 0 0 0 0 0 0 0 0 0 0 0 0 0 0 0 0 0 0 0 0 0 0 0 0 0 0 0 0 0 0 0 0 0 0 0 0 0 0 0 0 0 0 0 0 0 0 0 0 0 0 0 0 0 0 0 0 0 0 0 0 0 0 0 0 0 0 0 0 0 0 0 0 0 0 0 0 0 0 0 0 0 0 0 0 0 0 0 0 0 0 0 0 0 0 0 0 0 0 0 0 0 0 0 0 0 0 0 0 0 0 0 0 0 0 0 0 0 0 0 0 0 0 0 0 0 0 0 0 0 0 0 0 0 0 0 0 0 0 0 0 0 0 0 0 0 0 0 0 0 0 0 0 0 0 0 0 0 0 0 0 0 0 0 0 0 0 0 0 0 0 0 0 0 0 0 0 0 0 0 0 0 0 0 0 0 0 0 0 0 0 0 0 0 0 0 0 0 0 0 0 0 0 0 0 0 0 0 0 0 0 0 0 0 0 0 0 0 0 0 0 0 0 0 0 0 0 0 0 0 0 0 0 0 0 0 0 0 0 0 0 0 0 0 0 0 0 0 0 0 0 0 0 0 0 0 0 0 0 0 0 0 0 0 0 0 0 0 0 0 0 0 0 0 0 0 0 0 0 0 0 0 0 0 0 0 0 0 0 0 0 0 0 0 0 0 0 0 0 0 0 0 0 0 0 0 0 0 0 0 0 0 0 0 0 0 0 0 0 0 0 0 0 0 0 0 0 0 0 0 0 0 0 0 0 0 0 0 0 0 0 0 0 0 0 0 0 0 0 0 0 0 0 0 0 0 0 0 0 0 0 0 0 0 0 0 0 0 0 0 0 0 0 0 0 0 0 0 0 0 0 0 0 0 0 0 0 0 0 0 0 0 0 0 0 0 0 0 0 0 0 0 0 0 0 0 0 0 0 0 0 0 0 0 0 0 0 0 0 0 0 0 0 0 0 0 0 0 0 0 0 0 0 0 0 0 0 0 0 0 0 0 0 0 0 0 0 0 0 0 0 0 0 0 0 0 0 0 0 0 0 0 0 0 0 0 0 0 0 0 0 0 0 0 0 0 0 0 0 0 0 0 0 0 0 0 0 0 0 0 0 0 0 0 0 0 0 0 0 0 0 0 0 0 0 0 0 0 0 0 0 0 0 0 0 0 0 0 0 0 0 0 0 0 0 0 0 0 0 0 0 0 0 0 0 0 0 0 0 0 0 0 0 0 0 0 0 0 0 0 0 0 0 0 0 0 0 0 0 0 0 0 0 0 0 0 0 0 0 0 0 0 0 0 0 0 0 0 0 0 0 0 0 0 0 0 0 0 0 0 0 0 0 0 0 0 0 0 0 0 0 0 0 0 0 0 0 0 0 0 0 0 0 0 0 0 0 0 0 0 0 0 0 0 0 0 0 0 0 0 0 0 0 0 0 0 0 0 0 0 0 0 0 0 0 0 0 0 0 0 0 0 0 0 0 0 0 0 0 0 0 0 0 0 0 0 0 0 0 0 0 0 0 0 0 0 0 0 0 0 0 0 0 0 0 0 0 0 0 0 0 0 0 0 0 0 0 0 0 0 0 0 0 0 0 0 0 0 0 0 0 0 0 0 0 0 0 0 0 0 0 0 0 0 0 0 0 0 0 0 0 0 0 0 0 0 0 0 0 0 0 0 0 0 0 0 0 0 0 0 0 0 0 0 0 0 0 0 0 0 0 0 0 0 0 0 0 0 0 0 0 0 0 0 0 0 0 0 0 0 0 0 0 0 0 0 0 0 0 0 0 0 0 0 0 0 0 0 0 0 0 0 0 0 0 0 0 0 0 0 0 0 0 0 0 0 0 0 0 0 0 0 0 0 0 0 0 0 0 0 0 0 0 0 0 0 0 0 0 0 0 0 0 0 0 0 ];
thru(1,:) = [ 0.167 0.184 0.161 0.163 0.178 0.198 0.157 0.191 0.161 0.147 0.157 0.176 0.186 0.182 0.16 0.181 0.167 0.17 0.161 0.174 0.153 0.139 0.167 0.177 0.165 0.183 0.156 0.19 0.158 0.201 0.171 0.166 0.2 0.199 0.184 0.192 0.169 0.171 0.168 0.191 0.196 0.179 0.171 0.185 0.168 0.14 0.156 0.185 0.135 0.179 0.167 0.157 0.196 0.174 0.173 0.178 0.185 0.198 0.18 0.193 0.147 0.185 0.156 0.19 0.148 0.154 0.186 0.178 0.169 0.166 0.162 0.168 0.169 0.158 0.18 0.162 0.167 0.181 0.168 0.193 0.177 0.19 0.18 0.193 0.157 0.17 0.188 0.162 0.186 0.18 0.198 0.148 0.185 0.178 0.156 0.173 0.183 0.17 0.194 0.173 0.167 0.184 0.161 0.153 0.166 0.181 0.178 0.151 0.178 0.147 0.197 0.17 0.18 0.152 0.166 0.16 0.163 0.178 0.141 0.161 0.164 0.178 0.172 0.16 0.147 0.177 0.16 0.159 0.178 0.145 0.196 0.192 0.184 0.179 0.192 0.159 0.166 0.162 0.166 0.17 0.151 0.164 0.163 0.159 0.17 0.183 0.171 0.159 0.18 0.18 0.16 0.165 0.175 0.178 0.168 0.171 0.165 0.152 0.186 0.203 0.169 0.158 0.18 0.178 0.165 0.154 0.163 0.186 0.176 0.157 0.17 0.152 0.182 0.161 0.19 0.18 0.165 0.195 0.189 0.16 0.168 0.206 0.166 0.194 0.176 0.205 0.178 0.179 0.178 0.164 0.196 0.208 0.164 0.165 0.185 0.167 0.186 0.171 0.172 0.159 0.175 0.186 0.143 0.217 0.175 0.142 0.177 0.16 0.177 0.179 0.165 0.135 0.183 0.185 0.159 0.183 0.176 0.152 0.165 0.157 0.173 0.167 0.172 0.192 0.16 0.163 0.196 0.148 0.16 0.155 0.138 0.184 0.161 0.168 0.179 0.152 0.186 0.175 0.14 0.187 0.185 0.173 0.17 0.169 0.149 0.171 0.168 0.179 0.188 0.159 0.172 0.203 0.206 0.159 0.175 0.177 0.178 0.192 0.174 0.182 0.18 0.148 0.188 0.164 0.181 0.175 0.154 0.156 0.165 0.149 0.174 0.171 0.189 0.161 0.185 0.193 0.171 0.167 0.193 0.192 0.147 0.168 0.158 0.167 0.172 0.172 0.156 0.18 0.165 0.149 0.157 0.163 0.138 0.17 0.202 0.153 0.171 0.156 0.164 0.191 0.154 0.178 0.159 0.171 0.196 0.162 0.142 0.195 0.17 0.168 0.139 0.141 0.197 0.162 0.17 0.175 0.16 0.172 0.162 0.173 0.189 0.179 0.191 0.139 0.178 0.184 0.164 0.194 0.147 0.18 0.185 0.171 0.154 0.161 0.167 0.15 0.176 0.178 0.173 0.178 0.148 0.178 0.177 0.17 0.164 0.178 0.168 0.195 0.193 0.173 0.184 0.186 0.165 0.161 0.196 0.193 0.17 0.179 0.17 0.177 0.183 0.155 0.17 0.148 0.199 0.166 0.166 0.199 0.15 0.166 0.154 0.17 0.182 0.19 0.169 0.177 0.151 0.156 0.177 0.166 0.159 0.164 0.145 0.162 0.157 0.14 0.183 0.179 0.173 0.17 0.167 0.173 0.19 0.181 0.169 0.139 0.18 0.187 0.152 0.175 0.181 0.15 0.196 0.165 0.156 0.162 0.17 0.168 0.171 0.183 0.199 0.167 0.152 0.147 0.187 0.171 0.185 0.163 0.189 0.185 0.136 0.186 0.18 0.166 0.176 0.17 0.155 0.168 0.168 0.178 0.161 0.162 0.193 0.166 0.174 0.164 0.184 0.17 0.15 0.187 0.196 0.164 0.175 0.22 0.172 0.141 0.172 0.158 0.169 0.163 0.196 0.155 0.16 0.2 0.197 0.148 0.158 0.17 0.162 0.163 0.177 0.133 0.15 0.183 0.156 0.185 0.182 0.164 0.179 0.166 0.169 0.173 0.148 0.164 0.185 0.17 0.19 0.187 0.176 0.194 0.213 0.169 0.166 0.163 0.188 0.186 0.166 0.176 0.186 0.184 0.2 0.172 0.174 0.154 0.163 0.162 0.186 0.181 0.177 0.19 0.19 0.186 0.151 0.146 0.172 0.159 0.183 0.153 0.184 0.176 0.16 0.161 0.145 0.161 0.162 0.163 0.179 0.176 0.176 0.159 0.165 0.163 0.154 0.175 0.187 0.166 0.172 0.154 0.171 0.177 0.161 0.182 0.15 0.165 0.159 0.187 0.166 0.179 0.186 0.171 0.182 0.171 0.165 0.157 0.173 0.173 0.172 0.149 0.174 0.188 0.173 0.183 0.157 0.169 0.189 0.201 0.167 0.156 0.185 0.134 0.17 0.152 0.2 0.186 0.166 0.167 0.178 0.175 0.169 0.176 0.156 0.15 0.157 0.177 0.18 0.202 0.149 0.19 0.187 0.171 0.168 0.169 0.17 0.159 0.186 0.171 0.183 0.178 0.154 0.16 0.185 0.162 0.171 0.164 0.157 0.167 0.178 0.152 0.191 0.163 0.192 0.169 0.159 0.195 0.171 0.187 0.169 0.179 0.158 0.173 0.169 0.197 0.171 0.188 0.17 0.194 0.169 0.177 0.145 0.168 0.158 0.17 0.188 0.184 0.193 0.176 0.197 0.149 0.186 0.209 0.204 0.166 0.157 0.157 0.172 0.198 0.183 0.187 0.179 0.145 0.17 0.172 0.201 0.162 0.203 0.147 0.167 0.197 0.169 0.158 0.154 0.178 0.179 0.163 0.16 0.166 0.172 0.177 0.2 0.174 0.178 0.165 0.174 0.17 0.17 0.215 0.187 0.175 0.166 0.174 0.186 0.163 0.17 0.153 0.165 0.173 0.152 0.185 0.167 0.141 0.178 0.213 0.137 0.184 0.158 0.202 0.173 0.182 0.179 0.194 0.144 0.159 0.178 0.177 0.169 0.191 0.156 0.17 0.178 0.183 0.169 0.192 0.169 0.155 0.193 0.154 0.191 0.164 0.171 0.144 0.161 0.182 0.177 0.174 0.187 0.125 0.187 0.171 0.164 0.189 0.151 0.17 0.173 0.161 0.183 0.174 0.168 0.173 0.164 0.194 0.146 0.171 0.198 0.176 0.154 0.183 0.146 0.173 0.16 0.182 0.184 0.175 0.193 0.135 0.168 0.176 0.178 0.167 0.18 0.189 0.149 0.16 0.165 0.15 0.162 0.181 0.152 0.157 0.174 0.192 0.173 0.171 0.199 0.169 0.174 0.178 0.206 0.17 0.204 0.2 0.19 0.19 0.177 0.19 0.185 0.161 0.18 0.144 0.166 0.186 0.188 0.185 0.189 0.167 0.158 0.171 0.154 0.21 0.159 0.14 0.19 0.179 0.127 0.141 0.16 0.174 0.167 0.174 0.176 0.151 0.186 0.165 0.185 0.172 0.118 0.158 0.184 0.174 0.187 0.175 0.181 0.177 0.181 0.167 0.192 0.166 0.176 0.185 0.158 0.191 0.187 0.184 0.176 0.181 0.176 0.159 0.185 0.187 0.159 0.158 0.218 0.15 0.163 0.201 0.138 0.157 0.176 0.153 0.149 0.181 0.18 0.174 0.191 0.197 0.178 0.187 0.161 0.187 0.159 0.185 0.175 0.166 0.152 0.167 0.157 0.193 0.162 0.189 0.162 0.136 0.177 0.18 0.19 0.162 0.165 0.149 0.186 0.177 0.166 0.16 0.165 0.172 0.177 0.181 0.174 0.179 0.175 0.171 0.153 0.173 0.18 0.14 0.179 0.159 0.177 0.165 0.164 0.159 0.187 0.167 0.165 0.194 0.151 0.189 0.144 0.179 0.164 0.171 0.161 0.139 0.158 0.185 0.167 0.175 0.162 0.146 0.168 0.16 0.173 0.169 0.158 0.156 0.162 0.165 0.129 0.159 0.158 0.184 0.163 0.168 0.165 0.15 0.17 0.173 0.178 0.154 0.174 0.162 0.171 0.161 0.147 0.208 0.178 0.162 0.17 0.171 0.165 0.163 0.188 0.192 0.171 0.218 0.164 0.182 0.179 0.171 0.142 0.179 0.212 0.173 0.165 0.19 0.188 0.157 0.163 0.189 0.181 0.146 0.151 0.184 0.179 0.161 0.151 0.173 0.172 0.188 0.185 0.182 0.209 0.177 0.168 0.183 0.197 0.185 0.172 0.175 0.177 0.167 0.157 0.176 0.177 0.161 0.205 0.152 0.169 0.191 0.171 0.17 0.172 0.191 0.163 0.19 0.161 0.182 0.188 0.175 0.169 0.184 0.153 0.177 0.177 0.165 0.188 0.15 0.155 0.154 0.197 0.168 0.157 0.168 0.186 0.159 0.147 0.172 0.167 0.202 0.161 0.167 0.188 0.205 0.163 0.17 0.161 0.179 0.163 0.189 0.165 0.136 0.175 0.162 0.165 0.171 0.174 0.18 0.155 0.152 0.183 0.182 0.143 0.178 0.153 0.153 0.171 0.144 0.153 0.16 0.16 0.164 0.164 0.183 0.165 0.16 0.204 0.172 0.174 0.17 ];
% latency change    = 1
% throughput change = 1
I am thread 0
I am thread 2
I am thread 1
I am thread 3
I am thread I am thread 5
4
I am thread 6
I am thread 7
0%=================================
% Average latency = 116.535
% Accepted packets = 0.1395 at node 804 (avg = 0.182936)
lat(2) = 116.535;
bins = [ 0 ...999];
freq = [ 0 14 1421 131 13 2 0 0 0 0 0 110 8666 1696 310 62 8 1 0 0 0 0 0 0 0 0 0 0 0 0 0 0 0 0 0 0 0 0 0 0 0 0 0 0 0 0 0 0 0 0 0 0 0 0 0 0 0 0 0 0 0 0 0 0 0 0 0 0 0 0 0 0 0 0 0 0 0 0 0 0 0 0 0 0 0 0 0 0 0 0 0 0 0 0 0 0 0 0 0 0 0 61 4758 914 131 30 5 0 0 0 0 638 56854 18837 4239 931 200 37 12 1 1 1840 162624 83226 27757 7966 2129 552 144 27 9 2 2 0 0 0 0 0 0 0 0 0 0 0 0 0 0 0 0 0 0 0 0 0 0 0 0 0 0 0 0 0 0 0 0 0 0 0 0 0 0 0 0 0 0 0 0 0 0 0 0 0 0 0 0 0 0 0 0 0 0 0 0 0 0 0 0 0 0 0 0 0 0 0 0 0 0 0 0 0 0 0 0 0 0 0 0 0 0 0 0 0 0 0 0 0 0 0 0 0 0 0 0 0 0 0 0 0 0 0 0 0 0 0 0 0 0 0 0 0 0 0 0 0 0 0 0 0 0 0 0 0 0 0 0 0 0 0 0 0 0 0 0 0 0 0 0 0 0 0 0 0 0 0 0 0 0 0 0 0 0 0 0 0 0 0 0 0 0 0 0 0 0 0 0 0 0 0 0 0 0 0 0 0 0 0 0 0 0 0 0 0 0 0 0 0 0 0 0 0 0 0 0 0 0 0 0 0 0 0 0 0 0 0 0 0 0 0 0 0 0 0 0 0 0 0 0 0 0 0 0 0 0 0 0 0 0 0 0 0 0 0 0 0 0 0 0 0 0 0 0 0 0 0 0 0 0 0 0 0 0 0 0 0 0 0 0 0 0 0 0 0 0 0 0 0 0 0 0 0 0 0 0 0 0 0 0 0 0 0 0 0 0 0 0 0 0 0 0 0 0 0 0 0 0 0 0 0 0 0 0 0 0 0 0 0 0 0 0 0 0 0 0 0 0 0 0 0 0 0 0 0 0 0 0 0 0 0 0 0 0 0 0 0 0 0 0 0 0 0 0 0 0 0 0 0 0 0 0 0 0 0 0 0 0 0 0 0 0 0 0 0 0 0 0 0 0 0 0 0 0 0 0 0 0 0 0 0 0 0 0 0 0 0 0 0 0 0 0 0 0 0 0 0 0 0 0 0 0 0 0 0 0 0 0 0 0 0 0 0 0 0 0 0 0 0 0 0 0 0 0 0 0 0 0 0 0 0 0 0 0 0 0 0 0 0 0 0 0 0 0 0 0 0 0 0 0 0 0 0 0 0 0 0 0 0 0 0 0 0 0 0 0 0 0 0 0 0 0 0 0 0 0 0 0 0 0 0 0 0 0 0 0 0 0 0 0 0 0 0 0 0 0 0 0 0 0 0 0 0 0 0 0 0 0 0 0 0 0 0 0 0 0 0 0 0 0 0 0 0 0 0 0 0 0 0 0 0 0 0 0 0 0 0 0 0 0 0 0 0 0 0 0 0 0 0 0 0 0 0 0 0 0 0 0 0 0 0 0 0 0 0 0 0 0 0 0 0 0 0 0 0 0 0 0 0 0 0 0 0 0 0 0 0 0 0 0 0 0 0 0 0 0 0 0 0 0 0 0 0 0 0 0 0 0 0 0 0 0 0 0 0 0 0 0 0 0 0 0 0 0 0 0 0 0 0 0 0 0 0 0 0 0 0 0 0 0 0 0 0 0 0 0 0 0 0 0 0 0 0 0 0 0 0 0 0 0 0 0 0 0 0 0 0 0 0 0 0 0 0 0 0 0 0 0 0 0 0 0 0 0 0 0 0 0 0 0 0 0 0 0 0 0 0 0 0 0 0 0 0 0 0 0 0 0 0 0 0 0 0 0 0 0 0 0 0 0 0 0 0 0 0 0 0 0 0 0 0 0 0 0 0 0 0 0 0 0 0 0 0 0 0 0 0 0 0 0 0 0 0 0 0 0 0 0 0 0 0 0 0 0 0 0 0 0 0 0 0 0 0 0 0 0 0 0 0 0 0 0 0 0 0 0 0 0 0 0 0 0 0 0 0 0 0 0 0 0 0 0 0 0 0 0 0 0 0 0 0 0 0 0 0 0 0 0 0 0 0 0 0 0 0 0 0 0 0 0 0 0 0 0 0 0 0 0 0 0 0 0 0 0 0 0 0 0 0 0 0 0 0 0 0 0 0 0 0 0 0 0 0 ];
thru(2,:) = [ 0.184 0.19 0.175 0.1735 0.1925 0.1895 0.172 0.197 0.181 0.171 0.1785 0.1765 0.191 0.18 0.1815 0.1735 0.1795 0.18 0.1605 0.1865 0.188 0.178 0.185 0.1825 0.181 0.2055 0.1765 0.196 0.181 0.1915 0.1905 0.17 0.1965 0.1915 0.2005 0.197 0.187 0.182 0.1775 0.189 0.1955 0.1745 0.1845 0.186 0.1845 0.162 0.184 0.1815 0.179 0.183 0.18 0.188 0.197 0.1895 0.1855 0.1675 0.1975 0.1965 0.1745 0.209 0.176 0.1865 0.184 0.187 0.181 0.1615 0.1775 0.1685 0.1765 0.19 0.18 0.1725 0.1855 0.163 0.223 0.174 0.179 0.1895 0.173 0.1875 0.184 0.2065 0.187 0.179 0.184 0.1725 0.187 0.1805 0.1995 0.196 0.1935 0.1825 0.1945 0.1845 0.174 0.1935 0.182 0.1695 0.2005 0.195 0.169 0.205 0.175 0.1795 0.1695 0.17 0.189 0.1725 0.1885 0.185 0.192 0.184 0.1965 0.1895 0.1735 0.186 0.1635 0.1735 0.17 0.1775 0.1775 0.183 0.178 0.176 0.1555 0.1885 0.171 0.1705 0.1745 0.1735 0.217 0.201 0.1955 0.169 0.1775 0.178 0.1955 0.1735 0.1685 0.1875 0.176 0.181 0.172 0.176 0.18 0.188 0.1965 0.178 0.1805 0.1775 0.163 0.1715 0.1735 0.183 0.172 0.1795 0.169 0.1675 0.2005 0.1825 0.191 0.1715 0.191 0.183 0.177 0.1665 0.1825 0.1965 0.1795 0.1635 0.1835 0.1645 0.188 0.177 0.1975 0.1865 0.1985 0.198 0.2035 0.164 0.19 0.205 0.183 0.1895 0.185 0.2145 0.1735 0.194 0.1755 0.1745 0.1755 0.201 0.178 0.1885 0.196 0.1825 0.1865 0.1955 0.184 0.178 0.2015 0.1755 0.1715 0.205 0.1885 0.1675 0.183 0.1745 0.192 0.188 0.176 0.1585 0.1815 0.1945 0.1895 0.178 0.1875 0.1755 0.1865 0.1895 0.182 0.173 0.1775 0.2065 0.186 0.1845 0.2075 0.171 0.1925 0.1825 0.169 0.198 0.172 0.191 0.1805 0.167 0.2025 0.179 0.158 0.188 0.196 0.183 0.1945 0.1865 0.1675 0.1685 0.1705 0.188 0.1825 0.175 0.178 0.188 0.1895 0.183 0.1925 0.193 0.176 0.2025 0.1825 0.1995 0.177 0.1545 0.1925 0.1855 0.1915 0.177 0.176 0.166 0.1935 0.1705 0.1915 0.187 0.194 0.181 0.193 0.1995 0.1735 0.1815 0.1815 0.206 0.1635 0.1845 0.166 0.1705 0.1755 0.1865 0.172 0.1865 0.1985 0.1775 0.187 0.198 0.1575 0.1815 0.2125 0.172 0.176 0.1735 0.1725 0.192 0.1715 0.168 0.1715 0.1825 0.2075 0.1875 0.168 0.187 0.1815 0.1785 0.1625 0.174 0.2035 0.183 0.1965 0.189 0.18 0.187 0.187 0.1725 0.1875 0.184 0.201 0.181 0.192 0.1985 0.1805 0.1975 0.15 0.1705 0.195 0.176 0.178 0.1805 0.192 0.176 0.1685 0.1815 0.185 0.2025 0.1685 0.1915 0.193 0.187 0.1745 0.1795 0.185 0.1855 0.1985 0.1885 0.1875 0.182 0.1835 0.181 0.185 0.2065 0.1735 0.1865 0.1795 0.1865 0.1925 0.184 0.1795 0.159 0.197 0.1685 0.177 0.2015 0.185 0.1885 0.167 0.1805 0.1875 0.1865 0.1905 0.1945 0.164 0.1725 0.185 0.179 0.175 0.1775 0.1715 0.177 0.186 0.17 0.189 0.1925 0.1915 0.181 0.1745 0.167 0.1835 0.185 0.1865 0.1645 0.1855 0.188 0.1685 0.179 0.183 0.163 0.193 0.174 0.1855 0.1835 0.1825 0.192 0.176 0.195 0.2055 0.176 0.1735 0.178 0.184 0.1765 0.1905 0.186 0.197 0.187 0.1575 0.1785 0.182 0.178 0.204 0.201 0.1765 0.18 0.1785 0.1895 0.162 0.182 0.201 0.183 0.1875 0.197 0.1785 0.1615 0.1855 0.195 0.182 0.1675 0.191 0.1885 0.189 0.1595 0.1765 0.196 0.1725 0.1785 0.19 0.17 0.1775 0.1955 0.197 0.1695 0.1695 0.175 0.1845 0.1825 0.193 0.1545 0.1845 0.18 0.17 0.1785 0.185 0.184 0.186 0.1885 0.1865 0.1885 0.1735 0.181 0.1805 0.1715 0.2035 0.187 0.1925 0.201 0.1945 0.1875 0.1665 0.1785 0.203 0.213 0.1895 0.183 0.1725 0.2 0.1975 0.2055 0.1865 0.1705 0.1765 0.19 0.201 0.1925 0.175 0.1805 0.1925 0.189 0.171 0.173 0.191 0.1705 0.1875 0.1925 0.181 0.1955 0.1735 0.179 0.182 0.181 0.1855 0.181 0.192 0.19 0.1775 0.1645 0.1805 0.1605 0.1795 0.1955 0.1945 0.183 0.1765 0.1725 0.1875 0.208 0.179 0.1795 0.1935 0.186 0.1875 0.187 0.1765 0.194 0.191 0.173 0.183 0.1905 0.1675 0.1785 0.19 0.184 0.1705 0.1775 0.1885 0.1945 0.169 0.199 0.173 0.1805 0.216 0.19 0.1725 0.18 0.1785 0.1605 0.1715 0.18 0.2 0.1805 0.183 0.1855 0.1875 0.19 0.1965 0.175 0.175 0.1635 0.171 0.18 0.1875 0.19 0.186 0.1785 0.2 0.1875 0.183 0.176 0.193 0.18 0.19 0.192 0.1965 0.1765 0.1725 0.1745 0.18 0.1665 0.1585 0.1635 0.174 0.1765 0.181 0.1655 0.18 0.184 0.1855 0.1955 0.1725 0.198 0.193 0.176 0.1735 0.18 0.1675 0.196 0.189 0.198 0.193 0.185 0.177 0.17 0.173 0.193 0.173 0.2015 0.2 0.192 0.175 0.178 0.187 0.174 0.212 0.1825 0.193 0.197 0.197 0.1795 0.173 0.1765 0.1815 0.212 0.175 0.194 0.181 0.177 0.1835 0.185 0.1875 0.183 0.1905 0.1635 0.1715 0.2035 0.1795 0.1825 0.1785 0.1895 0.204 0.1705 0.179 0.1885 0.188 0.195 0.196 0.172 0.1785 0.184 0.171 0.1805 0.187 0.216 0.1945 0.1795 0.18 0.1855 0.1745 0.182 0.1815 0.162 0.18 0.185 0.181 0.1975 0.1695 0.1725 0.1855 0.1925 0.1775 0.1805 0.1585 0.1955 0.1765 0.189 0.185 0.2075 0.174 0.1835 0.1755 0.188 0.196 0.1985 0.1675 0.191 0.176 0.182 0.1695 0.208 0.194 0.1795 0.201 0.1695 0.1935 0.186 0.1785 0.1695 0.1795 0.2075 0.191 0.1925 0.1955 0.1695 0.1665 0.185 0.1845 0.1915 0.169 0.1845 0.1755 0.169 0.1885 0.1845 0.1715 0.195 0.174 0.191 0.1695 0.1685 0.186 0.178 0.168 0.2015 0.157 0.1915 0.1735 0.2 0.199 0.192 0.182 0.1615 0.176 0.196 0.1885 0.1785 0.182 0.1915 0.169 0.1895 0.177 0.1695 0.1675 0.177 0.1545 0.1645 0.1815 0.205 0.1915 0.181 0.1965 0.182 0.1785 0.179 0.197 0.1825 0.192 0.19 0.193 0.179 0.1795 0.192 0.184 0.19 0.1795 0.159 0.163 0.1905 0.1835 0.1875 0.194 0.1815 0.1855 0.18 0.17 0.1995 0.1885 0.166 0.1855 0.182 0.158 0.1665 0.162 0.1905 0.184 0.1755 0.188 0.174 0.201 0.1805 0.187 0.1805 0.1395 0.1885 0.192 0.1895 0.1895 0.181 0.1765 0.197 0.1865 0.1915 0.1985 0.186 0.1995 0.1875 0.1665 0.205 0.203 0.1935 0.192 0.1755 0.1925 0.1685 0.186 0.188 0.1655 0.171 0.197 0.165 0.182 0.19 0.159 0.1735 0.197 0.1735 0.19 0.2015 0.19 0.168 0.1855 0.204 0.1785 0.1875 0.1755 0.177 0.1765 0.19 0.178 0.1815 0.189 0.178 0.1915 0.181 0.189 0.1995 0.1865 0.165 0.1815 0.197 0.206 0.187 0.1835 0.1665 0.1935 0.1755 0.1955 0.1885 0.1835 0.181 0.1935 0.1855 0.1825 0.1775 0.1885 0.204 0.179 0.1745 0.187 0.174 0.1765 0.1835 0.1695 0.1875 0.158 0.1815 0.21 0.1965 0.1875 0.2045 0.165 0.183 0.176 0.1905 0.1755 0.194 0.1605 0.164 0.189 0.1915 0.1725 0.1745 0.187 0.158 0.1765 0.177 0.1795 0.194 0.178 0.1595 0.1805 0.167 0.1485 0.1725 0.196 0.191 0.1705 0.179 0.168 0.1835 0.188 0.193 0.1685 0.162 0.185 0.19 0.1835 0.1705 0.159 0.2015 0.193 0.172 0.1785 0.1635 0.174 0.1695 0.1935 0.2075 0.169 0.196 0.169 0.1985 0.195 0.1885 0.167 0.185 0.2035 0.1955 0.1815 0.194 0.1855 0.1825 0.1705 0.1825 0.1875 0.177 0.178 0.187 0.1805 0.187 0.1715 0.19 0.18 0.183 0.198 0.1905 0.1995 0.18 0.167 0.1945 0.2005 0.1825 0.174 0.1875 0.1745 0.174 0.162 0.179 0.188 0.182 0.188 0.1895 0.1785 0.191 0.1875 0.1805 0.179 0.1975 0.175 0.202 0.188 0.1825 0.1965 0.185 0.179 0.186 0.181 0.199 0.19 0.1775 0.1865 0.1635 0.1785 0.17 0.189 0.1925 0.1715 0.195 0.1845 0.1765 0.1785 0.178 0.187 0.207 0.1795 0.1745 0.1965 0.2005 0.1735 0.184 0.1765 0.186 0.177 0.183 0.1695 0.159 0.1805 0.172 0.17 0.1855 0.197 0.189 0.168 0.185 0.1775 0.187 0.1685 0.183 0.183 0.16 0.1775 0.1845 0.183 0.1715 0.1855 0.179 0.179 0.1915 0.194 0.182 0.1975 0.1675 0.182 0.1745 ];
% latency change    = 0.00147761
% throughput change = 0.0616962
I am thread 0
I am thread 2
I am thread 1
I am thread 5
I am thread I am thread 3
I am thread 6
4
I am thread 7
0%=================================
% Average latency = 116.626
% Accepted packets = 0.154333 at node 914 (avg = 0.186477)
lat(3) = 116.626;
bins = [ 0 ...999];
freq = [ 0 24 2091 178 21 3 0 0 0 0 0 183 12925 2544 438 87 11 3 0 0 0 0 0 0 0 0 0 0 0 0 0 0 0 0 0 0 0 0 0 0 0 0 0 0 0 0 0 0 0 0 0 0 0 0 0 0 0 0 0 0 0 0 0 0 0 0 0 0 0 0 0 0 0 0 0 0 0 0 0 0 0 0 0 0 0 0 0 0 0 0 0 0 0 0 0 0 0 0 0 0 0 93 7262 1373 220 44 7 0 0 0 0 1070 86832 29002 6622 1405 330 55 16 4 2 3101 248481 126948 42809 12153 3294 839 227 46 11 4 2 0 0 0 0 0 0 0 0 0 0 0 0 0 0 0 0 0 0 0 0 0 0 0 0 0 0 0 0 0 0 0 0 0 0 0 0 0 0 0 0 0 0 0 0 0 0 0 0 0 0 0 0 0 0 0 0 0 0 0 0 0 0 0 0 0 0 0 0 0 0 0 0 0 0 0 0 0 0 0 0 0 0 0 0 0 0 0 0 0 0 0 0 0 0 0 0 0 0 0 0 0 0 0 0 0 0 0 0 0 0 0 0 0 0 0 0 0 0 0 0 0 0 0 0 0 0 0 0 0 0 0 0 0 0 0 0 0 0 0 0 0 0 0 0 0 0 0 0 0 0 0 0 0 0 0 0 0 0 0 0 0 0 0 0 0 0 0 0 0 0 0 0 0 0 0 0 0 0 0 0 0 0 0 0 0 0 0 0 0 0 0 0 0 0 0 0 0 0 0 0 0 0 0 0 0 0 0 0 0 0 0 0 0 0 0 0 0 0 0 0 0 0 0 0 0 0 0 0 0 0 0 0 0 0 0 0 0 0 0 0 0 0 0 0 0 0 0 0 0 0 0 0 0 0 0 0 0 0 0 0 0 0 0 0 0 0 0 0 0 0 0 0 0 0 0 0 0 0 0 0 0 0 0 0 0 0 0 0 0 0 0 0 0 0 0 0 0 0 0 0 0 0 0 0 0 0 0 0 0 0 0 0 0 0 0 0 0 0 0 0 0 0 0 0 0 0 0 0 0 0 0 0 0 0 0 0 0 0 0 0 0 0 0 0 0 0 0 0 0 0 0 0 0 0 0 0 0 0 0 0 0 0 0 0 0 0 0 0 0 0 0 0 0 0 0 0 0 0 0 0 0 0 0 0 0 0 0 0 0 0 0 0 0 0 0 0 0 0 0 0 0 0 0 0 0 0 0 0 0 0 0 0 0 0 0 0 0 0 0 0 0 0 0 0 0 0 0 0 0 0 0 0 0 0 0 0 0 0 0 0 0 0 0 0 0 0 0 0 0 0 0 0 0 0 0 0 0 0 0 0 0 0 0 0 0 0 0 0 0 0 0 0 0 0 0 0 0 0 0 0 0 0 0 0 0 0 0 0 0 0 0 0 0 0 0 0 0 0 0 0 0 0 0 0 0 0 0 0 0 0 0 0 0 0 0 0 0 0 0 0 0 0 0 0 0 0 0 0 0 0 0 0 0 0 0 0 0 0 0 0 0 0 0 0 0 0 0 0 0 0 0 0 0 0 0 0 0 0 0 0 0 0 0 0 0 0 0 0 0 0 0 0 0 0 0 0 0 0 0 0 0 0 0 0 0 0 0 0 0 0 0 0 0 0 0 0 0 0 0 0 0 0 0 0 0 0 0 0 0 0 0 0 0 0 0 0 0 0 0 0 0 0 0 0 0 0 0 0 0 0 0 0 0 0 0 0 0 0 0 0 0 0 0 0 0 0 0 0 0 0 0 0 0 0 0 0 0 0 0 0 0 0 0 0 0 0 0 0 0 0 0 0 0 0 0 0 0 0 0 0 0 0 0 0 0 0 0 0 0 0 0 0 0 0 0 0 0 0 0 0 0 0 0 0 0 0 0 0 0 0 0 0 0 0 0 0 0 0 0 0 0 0 0 0 0 0 0 0 0 0 0 0 0 0 0 0 0 0 0 0 0 0 0 0 0 0 0 0 0 0 0 0 0 0 0 0 0 0 0 0 0 0 0 0 0 0 0 0 0 0 0 0 0 0 0 0 0 0 0 0 0 0 0 0 0 0 0 0 0 0 0 0 0 0 0 0 0 0 0 0 0 0 0 0 0 0 0 0 0 0 0 0 0 0 0 0 0 0 0 0 0 0 0 0 0 0 0 0 0 0 0 0 0 0 0 0 0 0 0 0 0 0 0 0 0 0 0 0 0 0 0 0 0 0 0 0 0 0 0 0 0 0 0 0 0 0 0 ];
thru(3,:) = [ 0.183667 0.188 0.181333 0.168333 0.195 0.188667 0.186667 0.196333 0.189 0.184333 0.183333 0.188 0.186 0.187 0.190333 0.185333 0.176 0.181 0.171333 0.192333 0.189333 0.187 0.183333 0.182667 0.180333 0.195 0.174333 0.188 0.178 0.192 0.188667 0.179 0.194333 0.194333 0.205 0.193333 0.192 0.188 0.183 0.196667 0.205667 0.18 0.191 0.19 0.190333 0.163 0.196333 0.188333 0.180667 0.186 0.194667 0.187333 0.186333 0.188667 0.192667 0.176 0.185667 0.188333 0.186 0.202 0.182333 0.184333 0.191667 0.192333 0.186667 0.171667 0.177667 0.173667 0.181 0.188333 0.182667 0.177333 0.190667 0.168667 0.217 0.176333 0.192333 0.205 0.184667 0.188333 0.191 0.215667 0.198333 0.183667 0.187667 0.187333 0.190333 0.184333 0.195333 0.19 0.196 0.19 0.196333 0.184333 0.182 0.193667 0.192 0.176333 0.214667 0.184 0.175333 0.205 0.190667 0.192667 0.187 0.168667 0.192667 0.18 0.191667 0.206333 0.188333 0.182333 0.198333 0.189667 0.177667 0.188333 0.185 0.186333 0.174667 0.177333 0.185333 0.191667 0.186 0.181333 0.18 0.185 0.183 0.184667 0.171 0.175333 0.204667 0.212333 0.191333 0.171 0.182 0.18 0.188 0.174333 0.172333 0.179333 0.184333 0.184333 0.180333 0.189667 0.178 0.192 0.201333 0.185 0.189 0.178 0.183667 0.177333 0.171 0.184667 0.184 0.187 0.176 0.162667 0.201667 0.188333 0.194333 0.176667 0.190667 0.188 0.187 0.184 0.180667 0.203 0.175 0.164 0.182333 0.172 0.199 0.18 0.188 0.186667 0.203 0.189333 0.193 0.171 0.198667 0.194333 0.188667 0.191 0.175667 0.208333 0.174333 0.196333 0.197 0.183333 0.184667 0.201 0.180333 0.201667 0.198 0.18 0.192667 0.198 0.190667 0.185333 0.197333 0.186 0.192667 0.197 0.199333 0.170667 0.189333 0.184667 0.181 0.196333 0.174333 0.166333 0.185333 0.191667 0.186 0.182667 0.192333 0.186 0.198 0.198 0.187667 0.183 0.185333 0.205667 0.195 0.189667 0.214 0.172667 0.189 0.189333 0.186 0.194 0.172333 0.184667 0.187 0.176333 0.197333 0.186 0.157333 0.189667 0.207 0.187333 0.184333 0.190667 0.177 0.166667 0.183667 0.188667 0.190667 0.185333 0.187333 0.187 0.189333 0.182 0.186333 0.191333 0.185667 0.194 0.189667 0.197333 0.175667 0.155 0.193333 0.177667 0.193 0.175667 0.179333 0.183333 0.201667 0.181333 0.202333 0.184667 0.193333 0.188333 0.196667 0.188667 0.171333 0.182333 0.183333 0.205 0.17 0.191667 0.183333 0.187667 0.179 0.192 0.177667 0.191 0.195667 0.182333 0.192667 0.198667 0.176 0.193333 0.196333 0.174667 0.191333 0.175333 0.169333 0.194333 0.172667 0.182667 0.165667 0.188 0.212 0.194667 0.181 0.180333 0.185 0.179667 0.168667 0.189667 0.197 0.191333 0.195333 0.199333 0.182667 0.185 0.195667 0.181 0.187667 0.193667 0.195333 0.181667 0.193 0.191667 0.186333 0.195 0.16 0.188667 0.204333 0.179333 0.176667 0.191 0.192667 0.18 0.186333 0.183 0.191 0.199333 0.17 0.193333 0.199 0.193 0.173 0.184 0.179333 0.179 0.201 0.189667 0.191333 0.186 0.189333 0.177 0.194 0.215 0.186 0.181 0.179667 0.189 0.197333 0.180333 0.181 0.170667 0.210667 0.178667 0.178667 0.193333 0.197667 0.198 0.177333 0.189667 0.186667 0.188 0.199667 0.192 0.166333 0.175667 0.188 0.184 0.184333 0.183333 0.175 0.175 0.193 0.171667 0.191667 0.186333 0.191333 0.192667 0.185333 0.167667 0.194667 0.195333 0.186667 0.171333 0.187 0.176667 0.17 0.183 0.190333 0.179 0.186333 0.165667 0.194333 0.183667 0.192667 0.196 0.176667 0.201333 0.190333 0.180333 0.189 0.186667 0.177667 0.182667 0.185667 0.187667 0.199 0.186667 0.165667 0.181667 0.181 0.186 0.204 0.195333 0.176333 0.184 0.19 0.191667 0.178667 0.179333 0.202333 0.185667 0.197667 0.197333 0.188 0.177333 0.182 0.192333 0.182333 0.179 0.183667 0.198333 0.202333 0.177 0.183 0.201667 0.180333 0.183333 0.192 0.172 0.187 0.196333 0.200667 0.164 0.181 0.174333 0.181667 0.186667 0.193333 0.178333 0.183333 0.187333 0.175333 0.186667 0.193667 0.185333 0.194 0.188667 0.187333 0.188 0.180667 0.188333 0.189333 0.173667 0.205333 0.193 0.204 0.195 0.200667 0.177667 0.175333 0.183 0.196667 0.220333 0.190333 0.178667 0.167333 0.197333 0.195333 0.201333 0.190333 0.173 0.184667 0.185 0.191333 0.202 0.178667 0.191 0.182333 0.196667 0.173667 0.183333 0.184 0.179 0.184 0.193333 0.190667 0.184 0.171667 0.194333 0.191 0.183667 0.178 0.176 0.184 0.189333 0.175 0.177333 0.191667 0.179667 0.180333 0.188333 0.199333 0.189 0.181667 0.192333 0.179667 0.188333 0.186333 0.187 0.196 0.197667 0.181667 0.194 0.184 0.198 0.188667 0.185 0.188667 0.184 0.173 0.186667 0.190667 0.190667 0.177333 0.177667 0.191667 0.202333 0.188667 0.189333 0.177667 0.187667 0.205333 0.197667 0.178333 0.186667 0.184333 0.169333 0.179 0.188667 0.195333 0.186333 0.182667 0.197333 0.184333 0.187333 0.184667 0.180333 0.181333 0.176 0.186667 0.179333 0.184667 0.188 0.187 0.183 0.195 0.193333 0.186 0.178333 0.196333 0.178667 0.195333 0.185333 0.193333 0.186 0.172667 0.174 0.190333 0.175333 0.164667 0.172333 0.187333 0.187 0.186 0.174 0.190333 0.202333 0.189667 0.202333 0.169667 0.191333 0.185667 0.184 0.183 0.188333 0.169667 0.194 0.198 0.193333 0.179667 0.186 0.186333 0.17 0.185 0.19 0.180667 0.214333 0.198667 0.196 0.175 0.179333 0.195667 0.177 0.204333 0.183333 0.202 0.196333 0.195 0.184333 0.185 0.177333 0.196333 0.206667 0.182333 0.183667 0.185667 0.186333 0.190667 0.185667 0.185667 0.192333 0.202333 0.168333 0.172333 0.198667 0.185667 0.191667 0.184 0.195 0.196667 0.188 0.176667 0.204667 0.183667 0.203 0.200667 0.183667 0.184667 0.183667 0.182667 0.173 0.178667 0.207667 0.185667 0.188 0.186667 0.183667 0.181333 0.188 0.182333 0.173667 0.175333 0.195 0.190667 0.187 0.173667 0.177333 0.194333 0.182333 0.191667 0.180667 0.163 0.195333 0.192333 0.187 0.188 0.203667 0.176333 0.185333 0.183667 0.189 0.198333 0.198333 0.161667 0.189333 0.172667 0.171 0.171667 0.195667 0.192 0.183333 0.207 0.183 0.201 0.186667 0.181333 0.177667 0.191333 0.207333 0.200667 0.193333 0.188667 0.170333 0.171 0.195 0.189333 0.194 0.178667 0.196333 0.179333 0.185667 0.191333 0.185667 0.176 0.19 0.184667 0.187667 0.179 0.187667 0.194333 0.184333 0.174333 0.198333 0.174667 0.197333 0.182333 0.195667 0.195333 0.189 0.183667 0.170667 0.184667 0.190667 0.196 0.178333 0.192333 0.192333 0.172667 0.192667 0.18 0.187667 0.179667 0.177667 0.187667 0.168 0.188 0.202333 0.188 0.182 0.193333 0.179 0.177667 0.184 0.202667 0.182667 0.208667 0.187333 0.182333 0.185333 0.182333 0.198667 0.189 0.197 0.186667 0.174667 0.186667 0.193 0.176 0.195333 0.194333 0.183333 0.191667 0.180667 0.177 0.189667 0.199333 0.176667 0.186 0.177667 0.16 0.174333 0.166667 0.178667 0.192333 0.168333 0.188667 0.169 0.201333 0.181 0.187333 0.192667 0.158 0.196667 0.186 0.190667 0.184667 0.169667 0.176 0.206 0.190333 0.204 0.195667 0.196667 0.193 0.191667 0.168333 0.188333 0.199333 0.193 0.195333 0.184333 0.193333 0.173 0.180333 0.193667 0.171667 0.170333 0.196 0.171667 0.178333 0.196 0.17 0.175 0.189667 0.182 0.192667 0.199333 0.196 0.174 0.197 0.197333 0.170667 0.190667 0.178 0.179333 0.174333 0.191 0.194 0.187667 0.190667 0.183667 0.192333 0.193333 0.181333 0.204 0.188667 0.177 0.178 0.205667 0.207667 0.183 0.178 0.174333 0.19 0.178 0.199667 0.201 0.183333 0.185 0.195333 0.196667 0.194333 0.195 0.195333 0.194333 0.183667 0.173 0.188 0.173667 0.187333 0.184 0.178667 0.2 0.165333 0.185667 0.205333 0.188333 0.188667 0.206667 0.181333 0.184667 0.172333 0.189 0.177667 0.185667 0.165333 0.172667 0.184 0.200667 0.171667 0.174667 0.191333 0.171333 0.182667 0.181333 0.185 0.192667 0.179667 0.161333 0.194 0.170667 0.154333 0.176 0.190667 0.186 0.172333 0.173333 0.174667 0.181 0.184667 0.187 0.176 0.180667 0.189667 0.188667 0.203 0.177333 0.174333 0.199 0.192667 0.178333 0.182 0.169667 0.186333 0.172667 0.186 0.206333 0.186333 0.196667 0.174 0.198 0.193 0.183 0.174667 0.192 0.192333 0.182667 0.184 0.198333 0.197 0.190667 0.183667 0.188333 0.182333 0.173333 0.177333 0.203 0.195 0.183333 0.175 0.195333 0.181 0.19 0.200667 0.182 0.199333 0.192333 0.177 0.193 0.198667 0.187333 0.185333 0.185333 0.186667 0.188333 0.167 0.191333 0.2 0.18 0.196 0.192667 0.179667 0.186 0.179333 0.186 0.184667 0.190667 0.185667 0.206333 0.186667 0.185667 0.201333 0.185667 0.177667 0.189667 0.183333 0.193333 0.183333 0.178667 0.190333 0.184667 0.185667 0.179 0.186667 0.203667 0.173333 0.195 0.19 0.176667 0.176333 0.187333 0.177333 0.201 0.181 0.183667 0.188 0.195333 0.178 0.189 0.186667 0.199667 0.183 0.192 0.179 0.164667 0.186333 0.183333 0.184 0.182333 0.195 0.197333 0.176667 0.192667 0.182 0.186667 0.171667 0.194667 0.183667 0.177 0.188667 0.193 0.183667 0.18 0.197667 0.178667 0.186 0.192 0.192333 0.187 0.188 0.173333 0.191 0.184333 ];
% latency change    = 0.000783209
% throughput change = 0.0189899
% Warmed up ...Time used is 3000 cycles
I am thread 0
I am thread 1
I am thread 2
I am thread 3
I am thread 4
I am thread 5
I am thread 6
I am thread 7
1%=================================
% Average latency = 116.36
% Accepted packets = 0.142 at node 977 (avg = 0.193198)
lat(4) = 116.36;
bins = [ 0 ...999];
freq = [ 0 10 655 61 8 2 0 0 0 1 0 55 4176 904 162 32 4 1 0 0 0 0 0 0 0 0 0 0 0 0 0 0 0 0 0 0 0 0 0 0 0 0 0 0 0 0 0 0 0 0 0 0 0 0 0 0 0 0 0 0 0 0 0 0 0 0 0 0 0 0 0 0 0 0 0 0 0 0 0 0 0 0 0 0 0 0 0 0 0 0 0 0 0 0 0 0 0 0 0 0 0 26 2209 399 63 17 3 2 0 0 0 292 26601 8925 2105 432 72 23 5 1 0 843 75446 38503 13116 3700 990 274 74 29 7 1 0 0 0 0 0 0 0 0 0 0 0 0 0 0 0 0 0 0 0 0 0 0 0 0 0 0 0 0 0 0 0 0 0 0 0 0 0 0 0 0 0 0 0 0 0 0 0 0 0 0 0 0 0 0 0 0 0 0 0 0 0 0 0 0 0 0 0 0 0 0 0 0 0 0 0 0 0 0 0 0 0 0 0 0 0 0 0 0 0 0 0 0 0 0 0 0 0 0 0 0 0 0 0 0 0 0 0 0 0 0 0 0 0 0 0 0 0 0 0 0 0 0 0 0 0 0 0 0 0 0 0 0 0 0 0 0 0 0 0 0 0 0 0 0 0 0 0 0 0 0 0 0 0 0 0 0 0 0 0 0 0 0 0 0 0 0 0 0 0 0 0 0 0 0 0 0 0 0 0 0 0 0 0 0 0 0 0 0 0 0 0 0 0 0 0 0 0 0 0 0 0 0 0 0 0 0 0 0 0 0 0 0 0 0 0 0 0 0 0 0 0 0 0 0 0 0 0 0 0 0 0 0 0 0 0 0 0 0 0 0 0 0 0 0 0 0 0 0 0 0 0 0 0 0 0 0 0 0 0 0 0 0 0 0 0 0 0 0 0 0 0 0 0 0 0 0 0 0 0 0 0 0 0 0 0 0 0 0 0 0 0 0 0 0 0 0 0 0 0 0 0 0 0 0 0 0 0 0 0 0 0 0 0 0 0 0 0 0 0 0 0 0 0 0 0 0 0 0 0 0 0 0 0 0 0 0 0 0 0 0 0 0 0 0 0 0 0 0 0 0 0 0 0 0 0 0 0 0 0 0 0 0 0 0 0 0 0 0 0 0 0 0 0 0 0 0 0 0 0 0 0 0 0 0 0 0 0 0 0 0 0 0 0 0 0 0 0 0 0 0 0 0 0 0 0 0 0 0 0 0 0 0 0 0 0 0 0 0 0 0 0 0 0 0 0 0 0 0 0 0 0 0 0 0 0 0 0 0 0 0 0 0 0 0 0 0 0 0 0 0 0 0 0 0 0 0 0 0 0 0 0 0 0 0 0 0 0 0 0 0 0 0 0 0 0 0 0 0 0 0 0 0 0 0 0 0 0 0 0 0 0 0 0 0 0 0 0 0 0 0 0 0 0 0 0 0 0 0 0 0 0 0 0 0 0 0 0 0 0 0 0 0 0 0 0 0 0 0 0 0 0 0 0 0 0 0 0 0 0 0 0 0 0 0 0 0 0 0 0 0 0 0 0 0 0 0 0 0 0 0 0 0 0 0 0 0 0 0 0 0 0 0 0 0 0 0 0 0 0 0 0 0 0 0 0 0 0 0 0 0 0 0 0 0 0 0 0 0 0 0 0 0 0 0 0 0 0 0 0 0 0 0 0 0 0 0 0 0 0 0 0 0 0 0 0 0 0 0 0 0 0 0 0 0 0 0 0 0 0 0 0 0 0 0 0 0 0 0 0 0 0 0 0 0 0 0 0 0 0 0 0 0 0 0 0 0 0 0 0 0 0 0 0 0 0 0 0 0 0 0 0 0 0 0 0 0 0 0 0 0 0 0 0 0 0 0 0 0 0 0 0 0 0 0 0 0 0 0 0 0 0 0 0 0 0 0 0 0 0 0 0 0 0 0 0 0 0 0 0 0 0 0 0 0 0 0 0 0 0 0 0 0 0 0 0 0 0 0 0 0 0 0 0 0 0 0 0 0 0 0 0 0 0 0 0 0 0 0 0 0 0 0 0 0 0 0 0 0 0 0 0 0 0 0 0 0 0 0 0 0 0 0 0 0 0 0 0 0 0 0 0 0 0 0 0 0 0 0 0 0 0 0 0 0 0 0 0 0 0 0 0 0 0 0 0 0 0 0 0 0 0 0 0 0 0 0 0 0 0 0 0 0 0 0 0 0 0 0 0 0 0 0 0 0 0 0 0 0 0 0 0 0 0 0 0 0 0 0 ];
thru(4,:) = [ 0.196 0.185 0.21 0.183 0.226 0.185 0.221 0.199 0.186 0.206 0.17 0.2 0.182 0.182 0.188 0.187 0.175 0.175 0.211 0.206 0.193 0.164 0.196 0.18 0.186 0.188 0.211 0.16 0.179 0.195 0.188 0.192 0.185 0.199 0.203 0.171 0.178 0.167 0.198 0.186 0.184 0.193 0.206 0.189 0.172 0.187 0.204 0.193 0.198 0.193 0.211 0.187 0.204 0.185 0.19 0.199 0.217 0.19 0.199 0.173 0.194 0.208 0.198 0.191 0.2 0.221 0.21 0.184 0.201 0.194 0.195 0.189 0.204 0.176 0.185 0.197 0.179 0.195 0.203 0.201 0.218 0.211 0.16 0.159 0.205 0.229 0.225 0.193 0.219 0.178 0.188 0.216 0.214 0.202 0.223 0.197 0.181 0.168 0.202 0.209 0.235 0.178 0.171 0.174 0.185 0.206 0.171 0.187 0.165 0.176 0.213 0.182 0.191 0.203 0.207 0.18 0.187 0.183 0.194 0.185 0.204 0.181 0.207 0.176 0.211 0.215 0.206 0.201 0.212 0.182 0.201 0.191 0.19 0.209 0.218 0.202 0.178 0.187 0.178 0.197 0.191 0.195 0.188 0.185 0.206 0.201 0.192 0.176 0.207 0.204 0.179 0.209 0.184 0.195 0.174 0.181 0.21 0.206 0.168 0.215 0.181 0.183 0.225 0.186 0.191 0.202 0.211 0.198 0.199 0.186 0.193 0.179 0.187 0.193 0.198 0.223 0.201 0.192 0.207 0.208 0.19 0.178 0.216 0.182 0.181 0.177 0.204 0.202 0.194 0.217 0.173 0.212 0.196 0.184 0.213 0.185 0.184 0.19 0.193 0.23 0.208 0.187 0.23 0.212 0.194 0.181 0.205 0.227 0.209 0.191 0.192 0.191 0.218 0.216 0.187 0.173 0.199 0.189 0.236 0.198 0.193 0.2 0.197 0.18 0.19 0.219 0.194 0.191 0.194 0.18 0.236 0.18 0.209 0.18 0.217 0.222 0.209 0.197 0.182 0.168 0.198 0.212 0.168 0.215 0.183 0.179 0.193 0.235 0.197 0.151 0.176 0.187 0.192 0.206 0.191 0.176 0.2 0.181 0.194 0.171 0.205 0.221 0.174 0.222 0.21 0.201 0.179 0.183 0.193 0.184 0.172 0.199 0.183 0.189 0.203 0.166 0.214 0.187 0.22 0.183 0.186 0.198 0.183 0.205 0.203 0.21 0.185 0.189 0.207 0.201 0.197 0.152 0.177 0.176 0.192 0.198 0.191 0.185 0.192 0.181 0.195 0.184 0.186 0.178 0.207 0.173 0.223 0.204 0.211 0.192 0.196 0.193 0.199 0.218 0.215 0.207 0.215 0.173 0.201 0.215 0.191 0.181 0.193 0.198 0.203 0.189 0.18 0.202 0.211 0.226 0.175 0.188 0.154 0.17 0.149 0.189 0.174 0.196 0.183 0.242 0.18 0.236 0.201 0.202 0.188 0.153 0.221 0.172 0.194 0.195 0.184 0.217 0.175 0.21 0.165 0.198 0.207 0.203 0.159 0.202 0.202 0.192 0.212 0.166 0.19 0.201 0.194 0.181 0.201 0.189 0.204 0.188 0.175 0.188 0.168 0.192 0.182 0.195 0.174 0.175 0.204 0.23 0.19 0.186 0.171 0.187 0.211 0.221 0.192 0.172 0.164 0.216 0.218 0.202 0.202 0.18 0.184 0.198 0.194 0.181 0.202 0.22 0.193 0.178 0.202 0.222 0.146 0.174 0.229 0.201 0.239 0.174 0.191 0.146 0.201 0.184 0.163 0.174 0.196 0.209 0.208 0.208 0.18 0.189 0.176 0.205 0.186 0.179 0.205 0.191 0.204 0.182 0.227 0.149 0.202 0.195 0.18 0.176 0.181 0.23 0.151 0.182 0.211 0.194 0.158 0.195 0.197 0.182 0.175 0.2 0.175 0.198 0.219 0.175 0.22 0.19 0.196 0.21 0.244 0.209 0.177 0.193 0.186 0.183 0.188 0.199 0.186 0.2 0.182 0.202 0.218 0.198 0.176 0.194 0.197 0.152 0.209 0.195 0.199 0.184 0.195 0.16 0.204 0.163 0.194 0.194 0.176 0.178 0.191 0.223 0.201 0.21 0.172 0.17 0.183 0.192 0.192 0.195 0.19 0.209 0.206 0.197 0.178 0.207 0.176 0.2 0.168 0.212 0.217 0.165 0.156 0.174 0.198 0.196 0.187 0.212 0.187 0.21 0.198 0.177 0.186 0.218 0.206 0.191 0.182 0.213 0.216 0.167 0.192 0.18 0.182 0.191 0.206 0.187 0.196 0.162 0.184 0.19 0.208 0.214 0.184 0.189 0.177 0.231 0.197 0.205 0.188 0.191 0.219 0.18 0.202 0.221 0.221 0.18 0.173 0.189 0.182 0.214 0.175 0.2 0.156 0.187 0.2 0.178 0.19 0.176 0.211 0.181 0.201 0.181 0.191 0.169 0.197 0.18 0.2 0.203 0.191 0.164 0.197 0.18 0.166 0.206 0.197 0.191 0.208 0.198 0.211 0.197 0.206 0.183 0.193 0.186 0.193 0.185 0.185 0.198 0.199 0.19 0.177 0.211 0.163 0.18 0.202 0.199 0.195 0.231 0.209 0.19 0.227 0.194 0.207 0.198 0.226 0.186 0.206 0.2 0.189 0.222 0.208 0.206 0.172 0.196 0.214 0.192 0.19 0.215 0.179 0.195 0.18 0.186 0.165 0.176 0.202 0.192 0.197 0.214 0.188 0.165 0.213 0.206 0.211 0.196 0.211 0.193 0.249 0.207 0.196 0.164 0.206 0.2 0.214 0.184 0.201 0.191 0.186 0.177 0.206 0.198 0.187 0.194 0.168 0.201 0.201 0.237 0.191 0.191 0.211 0.174 0.199 0.201 0.21 0.192 0.214 0.197 0.187 0.176 0.201 0.209 0.187 0.209 0.209 0.158 0.216 0.208 0.179 0.182 0.232 0.181 0.206 0.164 0.194 0.215 0.217 0.19 0.19 0.211 0.185 0.176 0.177 0.233 0.207 0.194 0.188 0.202 0.196 0.175 0.153 0.153 0.198 0.201 0.187 0.202 0.217 0.213 0.191 0.167 0.199 0.2 0.203 0.176 0.208 0.174 0.205 0.154 0.205 0.198 0.185 0.191 0.206 0.184 0.203 0.173 0.192 0.195 0.185 0.212 0.179 0.176 0.215 0.185 0.147 0.208 0.206 0.214 0.197 0.159 0.19 0.199 0.167 0.197 0.198 0.195 0.18 0.194 0.216 0.217 0.209 0.195 0.183 0.176 0.231 0.168 0.225 0.178 0.197 0.18 0.181 0.209 0.187 0.163 0.19 0.214 0.184 0.162 0.198 0.204 0.198 0.181 0.19 0.226 0.185 0.198 0.198 0.197 0.173 0.202 0.188 0.178 0.217 0.227 0.2 0.181 0.174 0.191 0.187 0.191 0.179 0.233 0.226 0.201 0.191 0.187 0.197 0.207 0.209 0.178 0.193 0.188 0.185 0.206 0.21 0.182 0.205 0.181 0.197 0.167 0.188 0.174 0.192 0.198 0.171 0.205 0.207 0.176 0.199 0.195 0.195 0.206 0.223 0.192 0.185 0.181 0.189 0.194 0.181 0.226 0.19 0.206 0.188 0.206 0.205 0.191 0.2 0.181 0.175 0.173 0.234 0.173 0.16 0.178 0.216 0.191 0.181 0.215 0.216 0.184 0.196 0.167 0.178 0.162 0.186 0.17 0.233 0.207 0.175 0.209 0.167 0.192 0.196 0.164 0.193 0.219 0.207 0.168 0.189 0.208 0.19 0.179 0.162 0.185 0.212 0.2 0.175 0.173 0.189 0.184 0.187 0.18 0.22 0.19 0.191 0.191 0.186 0.195 0.206 0.184 0.163 0.172 0.196 0.158 0.216 0.197 0.173 0.188 0.196 0.21 0.185 0.182 0.188 0.167 0.19 0.181 0.219 0.176 0.194 0.187 0.193 0.175 0.175 0.184 0.185 0.191 0.2 0.184 0.202 0.194 0.198 0.204 0.2 0.181 0.161 0.186 0.203 0.201 0.217 0.184 0.205 0.22 0.188 0.216 0.198 0.195 0.223 0.177 0.18 0.184 0.163 0.191 0.211 0.192 0.195 0.189 0.18 0.205 0.178 0.194 0.197 0.193 0.218 0.163 0.198 0.179 0.185 0.169 0.19 0.195 0.185 0.182 0.198 0.207 0.197 0.181 0.179 0.206 0.196 0.227 0.18 0.142 0.216 0.184 0.183 0.226 0.204 0.212 0.197 0.218 0.169 0.204 0.243 0.193 0.167 0.182 0.195 0.199 0.162 0.178 0.21 0.169 0.174 0.198 0.152 0.187 0.18 0.157 0.174 0.178 0.243 0.226 0.217 0.173 0.182 0.186 0.17 0.197 0.183 0.178 0.185 0.229 0.206 0.166 0.207 0.186 0.201 0.203 0.183 0.202 0.187 0.198 0.208 0.18 0.195 0.161 0.19 0.194 0.187 0.193 0.201 0.164 0.195 0.166 0.203 0.213 0.192 0.236 0.209 0.194 0.177 0.168 0.193 0.195 0.182 0.173 0.191 0.217 0.208 0.184 ];
% latency change    = 0.0022928
% throughput change = 0.0347863
I am thread 0
I am thread 1
I am thread 2
I am thread 3
I am thread 4
I am thread 7
I am thread 6
I am thread 5
1%=================================
% Average latency = 116.541
% Accepted packets = 0.1535 at node 345 (avg = 0.193046)
lat(5) = 116.541;
bins = [ 0 ...999];
freq = [ 0 15 1341 136 21 3 0 0 0 1 0 105 8483 1795 316 55 7 3 1 0 0 0 0 0 0 0 0 0 0 0 0 0 0 0 0 0 0 0 0 0 0 0 0 0 0 0 0 0 0 0 0 0 0 0 0 0 0 0 0 0 0 0 0 0 0 0 0 0 0 0 0 0 0 0 0 0 0 0 0 0 0 0 0 0 0 0 0 0 0 0 0 0 0 0 0 0 0 0 0 0 0 45 4713 915 144 34 7 3 0 0 0 677 56633 19057 4536 895 197 51 7 1 0 1868 160779 82418 27733 7949 2178 575 157 53 13 4 0 0 1 0 0 0 0 0 0 0 0 0 0 0 0 0 0 0 0 0 0 0 0 0 0 0 0 0 0 0 0 0 0 0 0 0 0 0 0 0 0 0 0 0 0 0 0 0 0 0 0 0 0 0 0 0 0 0 0 0 0 0 0 0 0 0 0 0 0 0 0 0 0 0 0 0 0 0 0 0 0 0 0 0 0 0 0 0 0 0 0 0 0 0 0 0 0 0 0 0 0 0 0 0 0 0 0 0 0 0 0 0 0 0 0 0 0 0 0 0 0 0 0 0 0 0 0 0 0 0 0 0 0 0 0 0 0 0 0 0 0 0 0 0 0 0 0 0 0 0 0 0 0 0 0 0 0 0 0 0 0 0 0 0 0 0 0 0 0 0 0 0 0 0 0 0 0 0 0 0 0 0 0 0 0 0 0 0 0 0 0 0 0 0 0 0 0 0 0 0 0 0 0 0 0 0 0 0 0 0 0 0 0 0 0 0 0 0 0 0 0 0 0 0 0 0 0 0 0 0 0 0 0 0 0 0 0 0 0 0 0 0 0 0 0 0 0 0 0 0 0 0 0 0 0 0 0 0 0 0 0 0 0 0 0 0 0 0 0 0 0 0 0 0 0 0 0 0 0 0 0 0 0 0 0 0 0 0 0 0 0 0 0 0 0 0 0 0 0 0 0 0 0 0 0 0 0 0 0 0 0 0 0 0 0 0 0 0 0 0 0 0 0 0 0 0 0 0 0 0 0 0 0 0 0 0 0 0 0 0 0 0 0 0 0 0 0 0 0 0 0 0 0 0 0 0 0 0 0 0 0 0 0 0 0 0 0 0 0 0 0 0 0 0 0 0 0 0 0 0 0 0 0 0 0 0 0 0 0 0 0 0 0 0 0 0 0 0 0 0 0 0 0 0 0 0 0 0 0 0 0 0 0 0 0 0 0 0 0 0 0 0 0 0 0 0 0 0 0 0 0 0 0 0 0 0 0 0 0 0 0 0 0 0 0 0 0 0 0 0 0 0 0 0 0 0 0 0 0 0 0 0 0 0 0 0 0 0 0 0 0 0 0 0 0 0 0 0 0 0 0 0 0 0 0 0 0 0 0 0 0 0 0 0 0 0 0 0 0 0 0 0 0 0 0 0 0 0 0 0 0 0 0 0 0 0 0 0 0 0 0 0 0 0 0 0 0 0 0 0 0 0 0 0 0 0 0 0 0 0 0 0 0 0 0 0 0 0 0 0 0 0 0 0 0 0 0 0 0 0 0 0 0 0 0 0 0 0 0 0 0 0 0 0 0 0 0 0 0 0 0 0 0 0 0 0 0 0 0 0 0 0 0 0 0 0 0 0 0 0 0 0 0 0 0 0 0 0 0 0 0 0 0 0 0 0 0 0 0 0 0 0 0 0 0 0 0 0 0 0 0 0 0 0 0 0 0 0 0 0 0 0 0 0 0 0 0 0 0 0 0 0 0 0 0 0 0 0 0 0 0 0 0 0 0 0 0 0 0 0 0 0 0 0 0 0 0 0 0 0 0 0 0 0 0 0 0 0 0 0 0 0 0 0 0 0 0 0 0 0 0 0 0 0 0 0 0 0 0 0 0 0 0 0 0 0 0 0 0 0 0 0 0 0 0 0 0 0 0 0 0 0 0 0 0 0 0 0 0 0 0 0 0 0 0 0 0 0 0 0 0 0 0 0 0 0 0 0 0 0 0 0 0 0 0 0 0 0 0 0 0 0 0 0 0 0 0 0 0 0 0 0 0 0 0 0 0 0 0 0 0 0 0 0 0 0 0 0 0 0 0 0 0 0 0 0 0 0 0 0 0 0 0 0 0 0 0 0 0 0 0 0 0 0 0 0 0 0 0 0 0 0 0 0 0 0 0 0 0 0 0 0 0 0 0 0 0 0 0 0 0 0 0 0 0 0 0 0 0 0 0 0 0 0 0 0 0 0 ];
thru(5,:) = [ 0.191 0.2065 0.21 0.182 0.201 0.1805 0.1955 0.1985 0.199 0.187 0.1645 0.205 0.1955 0.199 0.1985 0.1835 0.1945 0.1885 0.21 0.199 0.187 0.1705 0.189 0.1895 0.1795 0.1785 0.2155 0.1895 0.175 0.2 0.196 0.1915 0.1825 0.206 0.1935 0.18 0.169 0.181 0.199 0.1925 0.1885 0.1855 0.1955 0.202 0.1895 0.187 0.205 0.1935 0.2065 0.192 0.187 0.193 0.193 0.211 0.187 0.2005 0.212 0.1885 0.205 0.2005 0.199 0.197 0.1805 0.186 0.194 0.2045 0.2035 0.18 0.201 0.1855 0.2045 0.194 0.206 0.183 0.2005 0.222 0.1925 0.1785 0.208 0.1885 0.207 0.197 0.176 0.174 0.193 0.225 0.2065 0.1845 0.2085 0.179 0.1825 0.202 0.189 0.1885 0.201 0.188 0.177 0.176 0.1835 0.196 0.208 0.183 0.1785 0.1845 0.1825 0.184 0.18 0.195 0.18 0.191 0.2095 0.178 0.199 0.198 0.191 0.1855 0.2 0.184 0.184 0.1905 0.1975 0.193 0.1935 0.1625 0.199 0.204 0.197 0.1845 0.1965 0.2035 0.201 0.186 0.212 0.201 0.214 0.1885 0.1875 0.176 0.1775 0.1815 0.191 0.1935 0.188 0.174 0.1925 0.1845 0.1995 0.1735 0.2025 0.2065 0.179 0.2125 0.177 0.1985 0.168 0.185 0.1925 0.207 0.1885 0.197 0.195 0.1875 0.2085 0.176 0.1965 0.1985 0.1995 0.1955 0.2035 0.183 0.189 0.2 0.175 0.199 0.2145 0.2015 0.1955 0.182 0.1885 0.198 0.2065 0.176 0.1945 0.187 0.195 0.1845 0.216 0.2095 0.195 0.2055 0.1805 0.2075 0.203 0.1795 0.197 0.1835 0.173 0.182 0.215 0.2255 0.187 0.194 0.211 0.2015 0.1935 0.186 0.1885 0.202 0.21 0.1825 0.185 0.2075 0.2115 0.2085 0.1905 0.1895 0.187 0.197 0.233 0.19 0.203 0.198 0.1985 0.189 0.1995 0.1995 0.1835 0.1785 0.2125 0.176 0.2225 0.1685 0.2105 0.186 0.187 0.2055 0.195 0.1885 0.1815 0.1705 0.184 0.2055 0.167 0.2015 0.19 0.1625 0.198 0.213 0.186 0.1595 0.1755 0.1835 0.193 0.1975 0.179 0.1905 0.203 0.1905 0.1965 0.1735 0.198 0.2045 0.1965 0.204 0.205 0.196 0.2015 0.181 0.199 0.169 0.191 0.1955 0.197 0.207 0.195 0.1715 0.2115 0.207 0.209 0.18 0.184 0.1915 0.2025 0.1915 0.194 0.2015 0.184 0.191 0.191 0.1915 0.1885 0.175 0.1865 0.1835 0.1925 0.1975 0.2015 0.1915 0.199 0.2025 0.1855 0.191 0.1925 0.195 0.2205 0.186 0.2095 0.189 0.2175 0.196 0.194 0.2005 0.1905 0.209 0.201 0.198 0.214 0.1855 0.199 0.2145 0.196 0.187 0.1975 0.19 0.1875 0.1975 0.1945 0.187 0.2085 0.216 0.1695 0.1965 0.1635 0.176 0.1685 0.1775 0.176 0.1925 0.1755 0.2345 0.1775 0.2185 0.206 0.204 0.1725 0.1535 0.2085 0.1835 0.1975 0.195 0.2005 0.197 0.171 0.198 0.1845 0.1885 0.209 0.203 0.1735 0.199 0.186 0.194 0.198 0.175 0.2085 0.1835 0.1855 0.181 0.2025 0.1915 0.1965 0.189 0.1745 0.2045 0.1805 0.193 0.202 0.199 0.1925 0.1915 0.1925 0.2015 0.2135 0.1815 0.1805 0.181 0.2105 0.199 0.1925 0.199 0.179 0.204 0.2085 0.1925 0.2045 0.171 0.1935 0.1955 0.1895 0.1995 0.194 0.203 0.209 0.2005 0.21 0.225 0.167 0.179 0.221 0.214 0.2065 0.1835 0.199 0.176 0.208 0.1895 0.1765 0.1925 0.1975 0.1825 0.2 0.2015 0.1965 0.191 0.1845 0.21 0.1935 0.1995 0.1885 0.185 0.1925 0.2045 0.206 0.175 0.201 0.206 0.189 0.171 0.173 0.2 0.168 0.205 0.1945 0.1885 0.179 0.2005 0.1965 0.187 0.1905 0.177 0.1895 0.2045 0.2075 0.192 0.207 0.179 0.193 0.2015 0.2215 0.2055 0.201 0.1945 0.1945 0.1925 0.177 0.2065 0.21 0.1845 0.1975 0.201 0.211 0.1845 0.179 0.1955 0.191 0.1805 0.203 0.195 0.2005 0.1805 0.2015 0.1785 0.2225 0.187 0.197 0.1995 0.195 0.1825 0.18 0.2185 0.1915 0.202 0.182 0.1875 0.1875 0.1935 0.203 0.1965 0.2015 0.205 0.198 0.1955 0.1865 0.205 0.186 0.206 0.1715 0.203 0.203 0.189 0.174 0.1875 0.2165 0.1855 0.197 0.1995 0.195 0.205 0.1885 0.178 0.178 0.2065 0.193 0.1885 0.186 0.195 0.195 0.1745 0.184 0.181 0.1825 0.184 0.193 0.1945 0.198 0.1835 0.2015 0.191 0.1995 0.207 0.197 0.203 0.193 0.222 0.189 0.2075 0.1875 0.188 0.2115 0.1885 0.196 0.209 0.225 0.1925 0.1785 0.1915 0.1895 0.201 0.1805 0.192 0.1535 0.1855 0.1925 0.203 0.182 0.1855 0.2075 0.1825 0.2075 0.1645 0.189 0.178 0.193 0.1885 0.199 0.1975 0.181 0.1925 0.206 0.179 0.175 0.1975 0.193 0.21 0.1935 0.184 0.195 0.186 0.1975 0.184 0.1955 0.196 0.18 0.173 0.2 0.183 0.1755 0.1955 0.1725 0.2145 0.184 0.1795 0.1935 0.193 0.1985 0.201 0.206 0.181 0.2185 0.1995 0.1955 0.204 0.213 0.189 0.1995 0.1905 0.189 0.2 0.2145 0.2025 0.1795 0.2065 0.206 0.1925 0.1925 0.1915 0.1925 0.1995 0.198 0.184 0.177 0.186 0.2005 0.1975 0.1965 0.214 0.185 0.189 0.1925 0.2005 0.1985 0.1985 0.205 0.193 0.225 0.192 0.186 0.17 0.19 0.1985 0.203 0.2015 0.186 0.1865 0.1855 0.179 0.2025 0.2015 0.196 0.1815 0.175 0.2065 0.2005 0.2205 0.1815 0.186 0.1935 0.2005 0.204 0.191 0.208 0.2015 0.2005 0.183 0.188 0.175 0.1855 0.203 0.178 0.2005 0.189 0.167 0.208 0.2025 0.1885 0.19 0.2055 0.1825 0.2 0.154 0.1935 0.206 0.218 0.1975 0.2075 0.2075 0.184 0.1755 0.1935 0.2165 0.1985 0.209 0.19 0.1945 0.1905 0.1795 0.177 0.1565 0.2025 0.189 0.2085 0.1905 0.2105 0.207 0.178 0.1905 0.186 0.2035 0.197 0.195 0.2075 0.19 0.2045 0.1885 0.212 0.198 0.1955 0.197 0.2105 0.2075 0.187 0.1725 0.17 0.1985 0.1945 0.2145 0.178 0.1945 0.2 0.171 0.1745 0.2155 0.2035 0.21 0.201 0.184 0.1785 0.194 0.195 0.1965 0.2035 0.1995 0.1835 0.1995 0.2115 0.192 0.193 0.1945 0.181 0.183 0.2235 0.177 0.2085 0.1775 0.187 0.1855 0.1965 0.18 0.176 0.178 0.191 0.201 0.1945 0.178 0.1895 0.1875 0.191 0.1765 0.1995 0.1945 0.179 0.183 0.193 0.2075 0.178 0.1985 0.195 0.184 0.191 0.2075 0.195 0.188 0.1895 0.198 0.185 0.202 0.186 0.2195 0.214 0.1915 0.19 0.189 0.1945 0.214 0.1975 0.1795 0.184 0.184 0.2015 0.2 0.1835 0.187 0.1915 0.185 0.178 0.1765 0.184 0.1875 0.19 0.1785 0.181 0.1945 0.212 0.1805 0.195 0.193 0.2125 0.1975 0.208 0.1975 0.184 0.181 0.198 0.1915 0.191 0.218 0.192 0.1975 0.187 0.2075 0.214 0.1965 0.199 0.1955 0.1705 0.1855 0.221 0.178 0.1745 0.1845 0.2055 0.18 0.189 0.2095 0.2005 0.185 0.1925 0.185 0.1715 0.1855 0.17 0.1875 0.213 0.1975 0.1865 0.2 0.1805 0.197 0.2185 0.1755 0.2015 0.199 0.207 0.1855 0.1945 0.1905 0.194 0.1845 0.173 0.199 0.219 0.1855 0.181 0.19 0.191 0.1795 0.181 0.186 0.2015 0.213 0.196 0.188 0.186 0.1935 0.1995 0.1935 0.1785 0.174 0.184 0.183 0.1935 0.2115 0.181 0.2015 0.201 0.199 0.1715 0.1795 0.193 0.179 0.1805 0.1735 0.196 0.198 0.1905 0.1745 0.2085 0.201 0.177 0.186 0.187 0.1735 0.2035 0.192 0.1975 0.197 0.1915 0.2065 0.1995 0.1835 0.173 0.177 0.205 0.191 0.203 0.176 0.2125 0.2055 0.205 0.2285 0.2015 0.187 0.2175 0.182 0.1965 0.1785 0.1765 0.196 0.202 0.1975 0.192 0.1965 0.201 0.199 0.1965 0.1935 0.1905 0.198 0.2145 0.1925 0.187 0.179 0.2015 0.1995 0.181 0.191 0.1865 0.179 0.1955 0.1895 0.1865 0.191 0.19 0.2 0.196 0.196 0.19 0.1575 0.216 0.1865 0.193 0.2025 0.1815 0.2015 0.189 0.21 0.185 0.2005 0.224 0.204 0.174 0.184 0.188 0.209 0.1775 0.1865 0.2015 0.174 0.1705 0.193 0.1615 0.194 0.186 0.17 0.179 0.1845 0.216 0.2115 0.221 0.1655 0.184 0.192 0.1775 0.192 0.1865 0.1885 0.1845 0.2055 0.193 0.174 0.201 0.192 0.1905 0.19 0.1755 0.19 0.1945 0.196 0.1995 0.1875 0.202 0.1705 0.1945 0.1915 0.1855 0.2145 0.2045 0.1705 0.201 0.1675 0.1945 0.215 0.1845 0.2025 0.2255 0.2005 0.1885 0.1635 0.21 0.194 0.177 0.176 0.205 0.209 0.1925 0.192 ];
% latency change    = 0.00155791
% throughput change = 0.000787319
I am thread 0
I am thread 1
I am thread 2
I am thread 3
I am thread 4
I am thread 5
I am thread 6
I am thread 7
1%=================================
% Average latency = 116.589
% Accepted packets = 0.151667 at node 560 (avg = 0.19306)
lat(6) = 116.589;
bins = [ 0 ...999];
freq = [ 0 23 2009 224 34 5 0 0 0 1 0 163 12844 2696 492 86 11 5 1 0 0 0 0 0 0 0 0 0 0 0 0 0 0 0 0 0 0 0 0 0 0 0 0 0 0 0 0 0 0 0 0 0 0 0 0 0 0 0 0 0 0 0 0 0 0 0 0 0 0 0 0 0 0 0 0 0 0 0 0 0 0 0 0 0 0 0 0 0 0 0 0 0 0 0 0 0 0 0 0 0 0 80 7176 1368 234 45 8 3 0 0 0 1063 86565 29001 6871 1419 300 70 10 2 0 3082 246323 126185 42628 12238 3394 840 237 68 15 6 0 0 1 0 0 0 0 0 0 0 0 0 0 0 0 0 0 0 0 0 0 0 0 0 0 0 0 0 0 0 0 0 0 0 0 0 0 0 0 0 0 0 0 0 0 0 0 0 0 0 0 0 0 0 0 0 0 0 0 0 0 0 0 0 0 0 0 0 0 0 0 0 0 0 0 0 0 0 0 0 0 0 0 0 0 0 0 0 0 0 0 0 0 0 0 0 0 0 0 0 0 0 0 0 0 0 0 0 0 0 0 0 0 0 0 0 0 0 0 0 0 0 0 0 0 0 0 0 0 0 0 0 0 0 0 0 0 0 0 0 0 0 0 0 0 0 0 0 0 0 0 0 0 0 0 0 0 0 0 0 0 0 0 0 0 0 0 0 0 0 0 0 0 0 0 0 0 0 0 0 0 0 0 0 0 0 0 0 0 0 0 0 0 0 0 0 0 0 0 0 0 0 0 0 0 0 0 0 0 0 0 0 0 0 0 0 0 0 0 0 0 0 0 0 0 0 0 0 0 0 0 0 0 0 0 0 0 0 0 0 0 0 0 0 0 0 0 0 0 0 0 0 0 0 0 0 0 0 0 0 0 0 0 0 0 0 0 0 0 0 0 0 0 0 0 0 0 0 0 0 0 0 0 0 0 0 0 0 0 0 0 0 0 0 0 0 0 0 0 0 0 0 0 0 0 0 0 0 0 0 0 0 0 0 0 0 0 0 0 0 0 0 0 0 0 0 0 0 0 0 0 0 0 0 0 0 0 0 0 0 0 0 0 0 0 0 0 0 0 0 0 0 0 0 0 0 0 0 0 0 0 0 0 0 0 0 0 0 0 0 0 0 0 0 0 0 0 0 0 0 0 0 0 0 0 0 0 0 0 0 0 0 0 0 0 0 0 0 0 0 0 0 0 0 0 0 0 0 0 0 0 0 0 0 0 0 0 0 0 0 0 0 0 0 0 0 0 0 0 0 0 0 0 0 0 0 0 0 0 0 0 0 0 0 0 0 0 0 0 0 0 0 0 0 0 0 0 0 0 0 0 0 0 0 0 0 0 0 0 0 0 0 0 0 0 0 0 0 0 0 0 0 0 0 0 0 0 0 0 0 0 0 0 0 0 0 0 0 0 0 0 0 0 0 0 0 0 0 0 0 0 0 0 0 0 0 0 0 0 0 0 0 0 0 0 0 0 0 0 0 0 0 0 0 0 0 0 0 0 0 0 0 0 0 0 0 0 0 0 0 0 0 0 0 0 0 0 0 0 0 0 0 0 0 0 0 0 0 0 0 0 0 0 0 0 0 0 0 0 0 0 0 0 0 0 0 0 0 0 0 0 0 0 0 0 0 0 0 0 0 0 0 0 0 0 0 0 0 0 0 0 0 0 0 0 0 0 0 0 0 0 0 0 0 0 0 0 0 0 0 0 0 0 0 0 0 0 0 0 0 0 0 0 0 0 0 0 0 0 0 0 0 0 0 0 0 0 0 0 0 0 0 0 0 0 0 0 0 0 0 0 0 0 0 0 0 0 0 0 0 0 0 0 0 0 0 0 0 0 0 0 0 0 0 0 0 0 0 0 0 0 0 0 0 0 0 0 0 0 0 0 0 0 0 0 0 0 0 0 0 0 0 0 0 0 0 0 0 0 0 0 0 0 0 0 0 0 0 0 0 0 0 0 0 0 0 0 0 0 0 0 0 0 0 0 0 0 0 0 0 0 0 0 0 0 0 0 0 0 0 0 0 0 0 0 0 0 0 0 0 0 0 0 0 0 0 0 0 0 0 0 0 0 0 0 0 0 0 0 0 0 0 0 0 0 0 0 0 0 0 0 0 0 0 0 0 0 0 0 0 0 0 0 0 0 0 0 0 0 0 0 0 0 0 0 0 0 0 0 0 0 0 0 0 0 0 0 0 0 0 0 0 0 0 0 0 0 0 0 0 0 0 0 0 0 0 0 0 ];
thru(6,:) = [ 0.194667 0.193 0.198 0.186333 0.198667 0.191 0.195 0.203 0.205 0.194333 0.176333 0.193333 0.2 0.195667 0.192667 0.191 0.187667 0.187333 0.201333 0.204 0.191 0.17 0.202333 0.190333 0.180333 0.184667 0.208667 0.198333 0.182333 0.202333 0.194333 0.190667 0.183667 0.207 0.203 0.186667 0.171333 0.191333 0.203 0.189 0.186667 0.185 0.197667 0.199333 0.194333 0.185 0.205667 0.187 0.197667 0.202 0.182667 0.190667 0.191 0.199667 0.193333 0.193333 0.214667 0.19 0.199333 0.21 0.199667 0.198667 0.184 0.186333 0.186667 0.204 0.202 0.175667 0.210667 0.189 0.199333 0.188 0.199333 0.182333 0.203333 0.216 0.196667 0.180333 0.209667 0.189333 0.203667 0.204333 0.18 0.169667 0.194333 0.219 0.193 0.188667 0.204667 0.189333 0.187333 0.187333 0.195667 0.182 0.199 0.184333 0.182 0.190667 0.183333 0.199667 0.196333 0.181667 0.184 0.18 0.194667 0.188667 0.18 0.196667 0.179667 0.193667 0.203 0.178 0.200333 0.204 0.186333 0.182333 0.188667 0.185333 0.180333 0.194 0.199667 0.205667 0.194 0.179333 0.202667 0.196333 0.191667 0.183 0.189667 0.196667 0.197 0.201667 0.204 0.201 0.212333 0.184667 0.188333 0.178 0.192333 0.179333 0.199333 0.186333 0.192 0.178667 0.185 0.190333 0.195 0.179333 0.211 0.203333 0.178667 0.203667 0.188667 0.195 0.170333 0.187667 0.195667 0.197667 0.194333 0.199 0.189 0.185 0.208667 0.178333 0.201667 0.193 0.206667 0.192667 0.197333 0.193 0.195333 0.202 0.179 0.195667 0.198333 0.188333 0.201667 0.180667 0.193 0.190667 0.196 0.181667 0.188667 0.179667 0.196667 0.187 0.202 0.203333 0.182333 0.203333 0.178333 0.206333 0.202667 0.183333 0.197333 0.187667 0.179667 0.185333 0.2 0.224 0.186667 0.193 0.21 0.201667 0.192667 0.193333 0.187667 0.204 0.208667 0.186667 0.194667 0.194333 0.207333 0.21 0.191667 0.187667 0.191 0.204667 0.215667 0.186333 0.209333 0.197 0.193 0.189 0.2 0.199333 0.185333 0.179333 0.203667 0.183667 0.206667 0.170333 0.213 0.189 0.191 0.208 0.208 0.189667 0.186 0.169333 0.187 0.198 0.184333 0.19 0.183 0.176 0.188667 0.204667 0.188333 0.17 0.178667 0.193 0.192667 0.197 0.191 0.195667 0.196333 0.187333 0.199 0.176333 0.186667 0.199667 0.193 0.202 0.188667 0.191 0.192333 0.193 0.185333 0.172333 0.186667 0.189333 0.2 0.198667 0.188333 0.183333 0.202 0.209 0.211 0.181 0.188333 0.183333 0.195 0.197 0.199 0.199667 0.193333 0.193667 0.197667 0.198333 0.197333 0.171 0.189 0.184333 0.193333 0.208 0.204 0.193333 0.196 0.199 0.195667 0.185 0.192 0.200333 0.217333 0.19 0.208 0.201 0.203333 0.215 0.196333 0.213 0.193 0.211333 0.194 0.203 0.205333 0.186 0.197667 0.208 0.189667 0.191667 0.19 0.196 0.197 0.186 0.189667 0.193333 0.213 0.215 0.179333 0.189 0.169667 0.182667 0.188 0.186667 0.187667 0.190333 0.168 0.222 0.176333 0.212667 0.207667 0.203667 0.184333 0.164667 0.206667 0.183333 0.201 0.194 0.190667 0.204667 0.176333 0.202333 0.188333 0.186 0.206 0.199667 0.179667 0.193333 0.180333 0.199333 0.191333 0.177333 0.201333 0.175667 0.195333 0.195 0.201667 0.192333 0.197 0.191333 0.182667 0.196 0.177667 0.187333 0.205 0.194 0.186 0.189 0.194333 0.198333 0.215333 0.190667 0.184333 0.187333 0.204333 0.197333 0.195333 0.200667 0.179 0.205333 0.202 0.192333 0.196 0.178333 0.201667 0.193667 0.204667 0.193 0.204 0.194333 0.195667 0.202 0.198667 0.211667 0.170333 0.182333 0.218 0.206667 0.202667 0.180667 0.199667 0.174333 0.204333 0.19 0.181333 0.193 0.198667 0.191667 0.197 0.191333 0.189333 0.188333 0.193333 0.199667 0.203 0.192667 0.197667 0.186333 0.203333 0.197 0.206 0.178333 0.197 0.206333 0.197333 0.182333 0.176667 0.190333 0.178667 0.207 0.190667 0.179333 0.182667 0.21 0.192667 0.189333 0.191 0.180667 0.196 0.196333 0.197667 0.189 0.200333 0.191333 0.200333 0.198 0.212333 0.198 0.184667 0.199667 0.189333 0.19 0.177 0.203 0.205667 0.194333 0.197 0.192 0.207667 0.189667 0.178 0.187333 0.2 0.191667 0.196 0.199667 0.206667 0.185333 0.196333 0.180333 0.219667 0.186333 0.192 0.201333 0.193667 0.190667 0.186667 0.207667 0.190333 0.214333 0.189 0.184667 0.191667 0.199667 0.202667 0.202333 0.203333 0.215 0.196333 0.189333 0.189 0.202667 0.177667 0.199 0.172 0.203333 0.204667 0.191 0.183667 0.181667 0.214667 0.184333 0.198667 0.194667 0.202333 0.195 0.192333 0.190333 0.187667 0.196667 0.202333 0.190667 0.190667 0.194333 0.192333 0.182667 0.190667 0.186 0.191667 0.192 0.190333 0.195333 0.2 0.192333 0.199333 0.187667 0.199 0.207 0.187 0.202667 0.192 0.213 0.189667 0.203667 0.189 0.196 0.215667 0.189333 0.192333 0.194 0.203667 0.193 0.191 0.185667 0.194333 0.196667 0.183667 0.191 0.151667 0.186 0.195333 0.203 0.191667 0.190333 0.198667 0.188333 0.194667 0.166333 0.184667 0.186333 0.187333 0.181 0.199 0.189667 0.184333 0.194 0.207333 0.191333 0.181 0.186 0.192667 0.208 0.182667 0.196 0.184667 0.183 0.201333 0.190333 0.195667 0.196667 0.189667 0.187667 0.196667 0.187333 0.184 0.190333 0.185333 0.214333 0.186667 0.174333 0.189333 0.190333 0.196 0.196333 0.208667 0.185667 0.201333 0.192333 0.19 0.199667 0.196667 0.198667 0.202 0.192 0.200333 0.194333 0.205667 0.192667 0.186 0.210333 0.194 0.19 0.188333 0.196333 0.198333 0.21 0.192333 0.189 0.179333 0.194 0.196333 0.183667 0.202 0.207667 0.184 0.183333 0.200333 0.188333 0.190333 0.192 0.206 0.183 0.206 0.183333 0.184333 0.171667 0.184667 0.191333 0.203 0.198 0.182 0.197333 0.193 0.172667 0.188667 0.193 0.197667 0.184 0.188 0.204 0.199667 0.209667 0.181333 0.190667 0.189 0.198 0.201333 0.184 0.197333 0.192333 0.198667 0.188333 0.191333 0.177333 0.174667 0.195 0.178667 0.199667 0.184333 0.181667 0.19 0.184333 0.189667 0.197667 0.203 0.193333 0.195 0.168 0.195 0.207333 0.209 0.192667 0.193333 0.196333 0.192 0.188667 0.199 0.199333 0.2 0.190667 0.191 0.196 0.187 0.178 0.183667 0.172333 0.194667 0.195667 0.206 0.195333 0.201 0.200333 0.186333 0.206333 0.188 0.204333 0.199333 0.187667 0.199667 0.195333 0.198667 0.188333 0.206667 0.209333 0.194 0.194 0.203333 0.197333 0.176667 0.179667 0.194667 0.202333 0.196333 0.206 0.184333 0.189667 0.196667 0.183 0.175333 0.214667 0.201667 0.201 0.194 0.187 0.185 0.189 0.197 0.196667 0.201333 0.192333 0.186 0.190333 0.206667 0.196 0.200667 0.195333 0.184333 0.193 0.214 0.189 0.207 0.195667 0.193667 0.191 0.195 0.183667 0.177 0.186667 0.192 0.200333 0.184667 0.178333 0.187667 0.181333 0.187 0.167333 0.186333 0.189667 0.185 0.177333 0.189333 0.196 0.18 0.19 0.210667 0.191333 0.196333 0.216333 0.182333 0.171 0.192333 0.197 0.189667 0.203667 0.188333 0.211667 0.207333 0.189333 0.184667 0.202 0.193 0.201333 0.192667 0.179667 0.191667 0.187333 0.204333 0.203667 0.183667 0.185333 0.195 0.194 0.177333 0.189 0.179667 0.189 0.186333 0.180667 0.178333 0.189 0.213667 0.189667 0.188 0.190333 0.205333 0.200667 0.202 0.190333 0.195333 0.182 0.202 0.182667 0.198667 0.206333 0.197333 0.180333 0.189333 0.205667 0.204667 0.198333 0.195 0.189667 0.182 0.191667 0.216667 0.185667 0.185333 0.19 0.200333 0.18 0.192333 0.211333 0.205333 0.176667 0.197 0.181667 0.177 0.203333 0.174 0.190667 0.197333 0.194 0.186333 0.194 0.185333 0.201 0.213333 0.186667 0.2 0.195667 0.203667 0.186333 0.193667 0.187667 0.192333 0.188667 0.180333 0.179333 0.210667 0.192 0.192 0.194667 0.183 0.179 0.187667 0.192 0.200333 0.207 0.190667 0.187 0.190667 0.198333 0.196333 0.195667 0.186 0.172667 0.185333 0.187 0.195 0.190333 0.183667 0.195333 0.203 0.196667 0.165 0.190333 0.196333 0.168667 0.187333 0.18 0.193667 0.197 0.188667 0.184667 0.215333 0.201333 0.191 0.197333 0.182 0.186333 0.201 0.192333 0.196333 0.188333 0.184667 0.205 0.191 0.191333 0.173667 0.178333 0.199 0.183333 0.202667 0.179667 0.206333 0.194 0.200667 0.222667 0.194 0.187667 0.211333 0.19 0.193333 0.191333 0.182333 0.191333 0.195667 0.204667 0.186667 0.194 0.187 0.189667 0.183 0.195667 0.193667 0.200333 0.203 0.198333 0.188 0.191667 0.201667 0.189333 0.190333 0.195 0.185667 0.176 0.194333 0.19 0.191667 0.196667 0.182667 0.199 0.199 0.193667 0.187333 0.163 0.202 0.202333 0.198 0.193 0.195333 0.209667 0.195667 0.206667 0.186 0.199 0.213667 0.207667 0.175333 0.192333 0.196333 0.204 0.179333 0.185667 0.194 0.186667 0.176 0.192 0.169 0.186 0.185667 0.177333 0.186 0.192 0.200667 0.203333 0.21 0.175667 0.19 0.199 0.189 0.193 0.199 0.185667 0.183667 0.192667 0.184 0.174667 0.195333 0.194667 0.186 0.198333 0.192333 0.193667 0.201 0.194 0.205 0.190333 0.213 0.184 0.201 0.179667 0.197 0.217667 0.195667 0.182 0.191 0.175333 0.192667 0.201 0.195333 0.210667 0.21 0.198 0.185333 0.166 0.196333 0.191 0.188667 0.182 0.202 0.207667 0.201333 0.185333 ];
% latency change    = 0.000406157
% throughput change = 7.27583e-05
% Draining all recorded packets ...
% Draining remaining packets ...
Time taken is 6000 cycles
====== Traffic class 0 ======
Overall average latency = 116.589 (1 samples)
Overall average accepted rate = 0.19306 (1 samples)
Overall min accepted rate = 0.151667 (1 samples)
Average hops = 3.69007 (1178586 samples)
Total run time 32.4265
LOL 1224064 1225953
node0 1210
