BEGIN Configuration File
Name: dragonflyconfig
// Dragonfly
//
// Flow co1	ntrol
//

// Total number of VCs must match the above assignments
num_vcs     = 3;

vc_buf_size = 256;

wait_for_tail_credit = 0;

//
// Router architecture
//
vc_allocator = islip; 
sw_allocator = islip;
alloc_iters  = 4;

credit_delay   = 0;
routing_delay  = 0;
vc_alloc_delay = 0;
sw_alloc_delay = 0;
st_final_delay = 0;

input_speedup     = 1;
output_speedup    = 1;
internal_speedup  = 1.7;


//iq_routing_delay = 0;
//row_routing_delay = 0;
//subsw_alloc_delay = 0;
//out_alloc_delay = 0;

warmup_periods = 3;
sim_count          = 1;

sample_period  = 1000;  


routing_function = min;

priority = none;
traffic       = uniform ;

injection_rate =0.2;
const_flits_per_packet = 1;

topology = dragonflynew;

k  = 4;
n  = 1;


END Configuration File
 Dragonfly 
 p = 4 n = 1
 each switch - total radix =  15
 # of switches = 264
 # of channels = 2904
 # of sources = 1056
 # of nodes ( size of network ) = 1056
 # of groups (_g) = 33
 # of routers per group (_a) = 8
Done links
Unable to open flit watch file, continuing with simulation
I am thread 0
I am thread 2
I am thread 1
I am thread 4
I am thread 5
I am thread 3
I am thread 8
I am thread 7
I am thread 9
I am thread 10
I am thread 6
I am thread 13
I am thread 12
I am thread 11
I am thread 14
I am thread 15
0%=================================
% Average latency = 116.235
% Accepted packets = 0.134 at node 26 (avg = 0.174347)
lat(1) = 116.235;
bins = [ 0 ...999];
freq = [ 0 157 428 170 24 0 1 0 0 0 0 1069 2763 1374 229 39 10 0 0 0 0 0 0 0 0 0 0 0 0 0 0 0 0 0 0 0 0 0 0 0 0 0 0 0 0 0 0 0 0 0 0 0 0 0 0 0 0 0 0 0 0 0 0 0 0 0 0 0 0 0 0 0 0 0 0 0 0 0 0 0 0 0 0 0 0 0 0 0 0 0 0 0 0 0 0 0 0 0 0 0 0 560 1371 726 141 26 1 0 0 0 0 6582 17749 11140 2983 639 126 31 5 1 0 18983 55817 40509 14881 4207 1036 251 66 13 2 0 0 0 0 0 0 0 0 0 0 0 0 0 0 0 0 0 0 0 0 0 0 0 0 0 0 0 0 0 0 0 0 0 0 0 0 0 0 0 0 0 0 0 0 0 0 0 0 0 0 0 0 0 0 0 0 0 0 0 0 0 0 0 0 0 0 0 0 0 0 0 0 0 0 0 0 0 0 0 0 0 0 0 0 0 0 0 0 0 0 0 0 0 0 0 0 0 0 0 0 0 0 0 0 0 0 0 0 0 0 0 0 0 0 0 0 0 0 0 0 0 0 0 0 0 0 0 0 0 0 0 0 0 0 0 0 0 0 0 0 0 0 0 0 0 0 0 0 0 0 0 0 0 0 0 0 0 0 0 0 0 0 0 0 0 0 0 0 0 0 0 0 0 0 0 0 0 0 0 0 0 0 0 0 0 0 0 0 0 0 0 0 0 0 0 0 0 0 0 0 0 0 0 0 0 0 0 0 0 0 0 0 0 0 0 0 0 0 0 0 0 0 0 0 0 0 0 0 0 0 0 0 0 0 0 0 0 0 0 0 0 0 0 0 0 0 0 0 0 0 0 0 0 0 0 0 0 0 0 0 0 0 0 0 0 0 0 0 0 0 0 0 0 0 0 0 0 0 0 0 0 0 0 0 0 0 0 0 0 0 0 0 0 0 0 0 0 0 0 0 0 0 0 0 0 0 0 0 0 0 0 0 0 0 0 0 0 0 0 0 0 0 0 0 0 0 0 0 0 0 0 0 0 0 0 0 0 0 0 0 0 0 0 0 0 0 0 0 0 0 0 0 0 0 0 0 0 0 0 0 0 0 0 0 0 0 0 0 0 0 0 0 0 0 0 0 0 0 0 0 0 0 0 0 0 0 0 0 0 0 0 0 0 0 0 0 0 0 0 0 0 0 0 0 0 0 0 0 0 0 0 0 0 0 0 0 0 0 0 0 0 0 0 0 0 0 0 0 0 0 0 0 0 0 0 0 0 0 0 0 0 0 0 0 0 0 0 0 0 0 0 0 0 0 0 0 0 0 0 0 0 0 0 0 0 0 0 0 0 0 0 0 0 0 0 0 0 0 0 0 0 0 0 0 0 0 0 0 0 0 0 0 0 0 0 0 0 0 0 0 0 0 0 0 0 0 0 0 0 0 0 0 0 0 0 0 0 0 0 0 0 0 0 0 0 0 0 0 0 0 0 0 0 0 0 0 0 0 0 0 0 0 0 0 0 0 0 0 0 0 0 0 0 0 0 0 0 0 0 0 0 0 0 0 0 0 0 0 0 0 0 0 0 0 0 0 0 0 0 0 0 0 0 0 0 0 0 0 0 0 0 0 0 0 0 0 0 0 0 0 0 0 0 0 0 0 0 0 0 0 0 0 0 0 0 0 0 0 0 0 0 0 0 0 0 0 0 0 0 0 0 0 0 0 0 0 0 0 0 0 0 0 0 0 0 0 0 0 0 0 0 0 0 0 0 0 0 0 0 0 0 0 0 0 0 0 0 0 0 0 0 0 0 0 0 0 0 0 0 0 0 0 0 0 0 0 0 0 0 0 0 0 0 0 0 0 0 0 0 0 0 0 0 0 0 0 0 0 0 0 0 0 0 0 0 0 0 0 0 0 0 0 0 0 0 0 0 0 0 0 0 0 0 0 0 0 0 0 0 0 0 0 0 0 0 0 0 0 0 0 0 0 0 0 0 0 0 0 0 0 0 0 0 0 0 0 0 0 0 0 0 0 0 0 0 0 0 0 0 0 0 0 0 0 0 0 0 0 0 0 0 0 0 0 0 0 0 0 0 0 0 0 0 0 0 0 0 0 0 0 0 0 0 0 0 0 0 0 0 0 0 0 0 0 0 0 0 0 0 0 0 0 0 0 0 0 0 0 0 0 0 0 0 0 0 0 0 0 0 0 0 0 0 0 0 0 0 0 0 0 0 0 0 0 0 0 0 0 0 ];
thru(1,:) = [ 0.178 0.183 0.211 0.182 0.154 0.161 0.15 0.155 0.136 0.154 0.218 0.201 0.196 0.162 0.169 0.181 0.182 0.17 0.174 0.156 0.186 0.187 0.139 0.166 0.173 0.187 0.134 0.16 0.172 0.183 0.172 0.168 0.135 0.18 0.154 0.201 0.17 0.18 0.183 0.183 0.165 0.163 0.166 0.187 0.167 0.195 0.181 0.168 0.17 0.176 0.168 0.182 0.185 0.175 0.184 0.194 0.205 0.158 0.186 0.193 0.168 0.153 0.154 0.173 0.179 0.163 0.171 0.15 0.162 0.179 0.185 0.183 0.179 0.172 0.17 0.178 0.151 0.181 0.216 0.183 0.155 0.148 0.165 0.169 0.149 0.179 0.182 0.177 0.172 0.175 0.182 0.183 0.16 0.163 0.166 0.2 0.176 0.149 0.162 0.168 0.192 0.177 0.172 0.181 0.196 0.187 0.156 0.206 0.158 0.164 0.144 0.197 0.183 0.191 0.169 0.189 0.174 0.134 0.167 0.149 0.173 0.175 0.169 0.153 0.15 0.16 0.159 0.156 0.183 0.164 0.183 0.165 0.184 0.162 0.167 0.157 0.186 0.16 0.146 0.191 0.192 0.18 0.159 0.166 0.172 0.203 0.167 0.184 0.18 0.18 0.162 0.187 0.2 0.165 0.183 0.143 0.195 0.215 0.187 0.179 0.137 0.155 0.159 0.153 0.178 0.181 0.144 0.165 0.189 0.192 0.177 0.173 0.181 0.156 0.159 0.198 0.169 0.178 0.194 0.17 0.161 0.182 0.176 0.189 0.161 0.187 0.195 0.157 0.147 0.151 0.169 0.164 0.163 0.162 0.182 0.189 0.178 0.183 0.181 0.199 0.165 0.17 0.16 0.158 0.163 0.182 0.162 0.178 0.171 0.168 0.171 0.205 0.185 0.18 0.176 0.163 0.19 0.187 0.179 0.167 0.148 0.144 0.19 0.187 0.169 0.182 0.169 0.165 0.195 0.165 0.182 0.18 0.165 0.169 0.176 0.181 0.185 0.178 0.199 0.175 0.175 0.184 0.185 0.168 0.185 0.164 0.177 0.184 0.189 0.196 0.184 0.162 0.179 0.184 0.147 0.201 0.185 0.164 0.172 0.192 0.194 0.165 0.188 0.185 0.154 0.16 0.197 0.179 0.192 0.16 0.175 0.168 0.184 0.196 0.167 0.16 0.177 0.175 0.215 0.172 0.192 0.201 0.16 0.175 0.197 0.137 0.176 0.19 0.183 0.163 0.195 0.177 0.175 0.182 0.198 0.174 0.188 0.152 0.204 0.179 0.172 0.167 0.169 0.19 0.15 0.18 0.223 0.174 0.171 0.163 0.176 0.17 0.18 0.185 0.138 0.196 0.178 0.17 0.187 0.2 0.194 0.184 0.168 0.199 0.167 0.167 0.171 0.17 0.178 0.167 0.152 0.179 0.17 0.184 0.152 0.154 0.167 0.183 0.189 0.162 0.2 0.169 0.175 0.173 0.185 0.169 0.187 0.184 0.176 0.155 0.194 0.194 0.177 0.177 0.179 0.192 0.157 0.184 0.184 0.186 0.159 0.199 0.18 0.21 0.202 0.17 0.169 0.146 0.183 0.147 0.19 0.182 0.186 0.182 0.187 0.15 0.194 0.171 0.158 0.187 0.188 0.156 0.169 0.188 0.158 0.179 0.163 0.165 0.18 0.172 0.182 0.157 0.168 0.166 0.194 0.181 0.189 0.19 0.187 0.169 0.17 0.187 0.172 0.17 0.183 0.167 0.18 0.171 0.194 0.176 0.195 0.176 0.181 0.189 0.17 0.174 0.164 0.147 0.193 0.201 0.157 0.159 0.181 0.196 0.182 0.169 0.139 0.158 0.178 0.175 0.188 0.156 0.15 0.135 0.194 0.195 0.166 0.207 0.179 0.156 0.17 0.179 0.167 0.164 0.163 0.177 0.166 0.17 0.163 0.165 0.165 0.181 0.17 0.181 0.178 0.16 0.159 0.167 0.212 0.164 0.201 0.17 0.159 0.178 0.151 0.182 0.166 0.193 0.16 0.187 0.165 0.169 0.15 0.173 0.189 0.15 0.162 0.159 0.182 0.161 0.159 0.182 0.153 0.181 0.169 0.192 0.182 0.173 0.179 0.166 0.176 0.178 0.184 0.161 0.171 0.192 0.163 0.22 0.155 0.15 0.16 0.174 0.193 0.169 0.161 0.171 0.2 0.175 0.153 0.171 0.206 0.181 0.162 0.153 0.172 0.17 0.161 0.195 0.162 0.176 0.156 0.166 0.155 0.199 0.161 0.175 0.185 0.154 0.187 0.165 0.184 0.155 0.192 0.185 0.158 0.2 0.168 0.175 0.184 0.171 0.19 0.174 0.189 0.179 0.167 0.179 0.173 0.178 0.197 0.16 0.158 0.168 0.171 0.183 0.188 0.159 0.176 0.166 0.166 0.157 0.203 0.185 0.189 0.177 0.179 0.184 0.179 0.172 0.17 0.167 0.201 0.184 0.177 0.188 0.193 0.182 0.177 0.166 0.163 0.169 0.184 0.165 0.139 0.192 0.213 0.181 0.193 0.165 0.166 0.175 0.172 0.157 0.178 0.196 0.162 0.157 0.161 0.189 0.166 0.159 0.163 0.179 0.15 0.149 0.206 0.178 0.183 0.168 0.16 0.168 0.168 0.173 0.192 0.174 0.161 0.186 0.161 0.154 0.155 0.172 0.158 0.177 0.179 0.171 0.169 0.166 0.173 0.184 0.195 0.184 0.171 0.16 0.199 0.166 0.175 0.191 0.176 0.178 0.169 0.18 0.189 0.155 0.158 0.155 0.148 0.204 0.175 0.157 0.183 0.162 0.151 0.155 0.204 0.16 0.186 0.159 0.169 0.161 0.165 0.151 0.201 0.214 0.169 0.203 0.18 0.18 0.173 0.156 0.174 0.154 0.158 0.168 0.172 0.165 0.182 0.203 0.162 0.181 0.207 0.181 0.166 0.188 0.165 0.172 0.141 0.173 0.153 0.181 0.167 0.162 0.181 0.176 0.158 0.198 0.161 0.202 0.158 0.175 0.166 0.152 0.166 0.173 0.145 0.178 0.173 0.175 0.179 0.176 0.169 0.175 0.162 0.198 0.167 0.161 0.179 0.203 0.163 0.18 0.17 0.183 0.136 0.187 0.167 0.159 0.183 0.187 0.179 0.164 0.175 0.173 0.162 0.178 0.162 0.202 0.163 0.168 0.195 0.169 0.171 0.195 0.177 0.153 0.186 0.168 0.167 0.172 0.148 0.155 0.181 0.179 0.19 0.153 0.172 0.156 0.159 0.186 0.177 0.17 0.163 0.194 0.182 0.192 0.155 0.184 0.157 0.161 0.193 0.174 0.189 0.164 0.158 0.173 0.201 0.178 0.18 0.183 0.158 0.192 0.184 0.174 0.172 0.172 0.193 0.182 0.173 0.188 0.173 0.172 0.184 0.169 0.179 0.159 0.144 0.171 0.178 0.179 0.173 0.174 0.182 0.178 0.175 0.164 0.21 0.187 0.2 0.176 0.179 0.173 0.184 0.16 0.165 0.194 0.176 0.187 0.159 0.174 0.181 0.165 0.166 0.169 0.169 0.173 0.176 0.16 0.176 0.159 0.191 0.187 0.182 0.167 0.2 0.178 0.194 0.157 0.191 0.163 0.178 0.185 0.154 0.187 0.184 0.169 0.169 0.178 0.182 0.18 0.17 0.169 0.184 0.186 0.156 0.179 0.15 0.165 0.167 0.15 0.161 0.182 0.155 0.197 0.2 0.191 0.193 0.184 0.155 0.159 0.173 0.186 0.184 0.208 0.15 0.182 0.187 0.152 0.206 0.139 0.174 0.157 0.159 0.194 0.194 0.183 0.195 0.186 0.162 0.178 0.172 0.159 0.18 0.174 0.177 0.164 0.195 0.172 0.166 0.183 0.161 0.162 0.18 0.185 0.183 0.174 0.175 0.167 0.192 0.17 0.181 0.157 0.185 0.165 0.166 0.173 0.178 0.16 0.156 0.188 0.173 0.153 0.179 0.188 0.165 0.204 0.177 0.183 0.163 0.174 0.164 0.166 0.167 0.147 0.186 0.165 0.148 0.188 0.164 0.205 0.207 0.164 0.178 0.175 0.154 0.178 0.178 0.177 0.16 0.179 0.157 0.212 0.185 0.192 0.166 0.183 0.177 0.173 0.176 0.183 0.19 0.158 0.208 0.18 0.194 0.154 0.142 0.185 0.201 0.157 0.168 0.18 0.179 0.178 0.156 0.167 0.192 0.179 0.169 0.209 0.182 0.193 0.191 0.167 0.174 0.166 0.147 0.191 0.169 0.171 0.196 0.158 0.18 0.141 0.214 0.167 0.165 0.181 0.167 0.163 0.165 0.167 0.16 0.17 0.175 0.173 0.186 0.168 0.183 0.189 0.18 0.184 0.162 0.187 0.163 0.175 0.178 0.165 0.193 0.151 0.161 0.151 0.155 0.142 0.173 0.169 0.169 0.159 0.199 0.17 0.198 0.169 0.189 0.168 0.197 0.185 0.189 0.17 0.184 0.181 0.175 0.15 0.179 0.16 0.158 0.2 0.159 0.171 0.161 0.18 0.156 0.146 0.16 0.173 0.193 0.187 0.17 0.174 0.172 0.177 ];
% latency change    = 1
% throughput change = 1
I am thread 0
I am thread 2
I am thread 1
I am thread 3
I am thread 4
I am thread 5
I am thread 6
I am thread 7
I am thread 10
I am thread 8
I am thread 9
I am thread 11
I am thread 12
I am thread 13
I am thread I am thread 1514

0%=================================
% Average latency = 116.484
% Accepted packets = 0.1505 at node 682 (avg = 0.185533)
lat(2) = 116.484;
bins = [ 0 ...999];
freq = [ 0 316 850 322 51 0 3 0 0 0 0 2094 5555 2724 490 73 13 0 0 0 0 0 0 0 0 0 0 0 0 0 0 0 0 0 0 0 0 0 0 0 0 0 0 0 0 0 0 0 0 0 0 0 0 0 0 0 0 0 0 0 0 0 0 0 0 0 0 0 0 0 0 0 0 0 0 0 0 0 0 0 0 0 0 0 0 0 0 0 0 0 0 0 0 0 0 0 0 0 0 0 0 1180 2931 1519 291 48 6 0 0 0 0 13541 38305 23340 6347 1333 270 46 8 2 0 39800 120534 86432 31867 8766 2142 496 118 26 6 0 0 0 0 0 0 0 0 0 0 0 0 0 0 0 0 0 0 0 0 0 0 0 0 0 0 0 0 0 0 0 0 0 0 0 0 0 0 0 0 0 0 0 0 0 0 0 0 0 0 0 0 0 0 0 0 0 0 0 0 0 0 0 0 0 0 0 0 0 0 0 0 0 0 0 0 0 0 0 0 0 0 0 0 0 0 0 0 0 0 0 0 0 0 0 0 0 0 0 0 0 0 0 0 0 0 0 0 0 0 0 0 0 0 0 0 0 0 0 0 0 0 0 0 0 0 0 0 0 0 0 0 0 0 0 0 0 0 0 0 0 0 0 0 0 0 0 0 0 0 0 0 0 0 0 0 0 0 0 0 0 0 0 0 0 0 0 0 0 0 0 0 0 0 0 0 0 0 0 0 0 0 0 0 0 0 0 0 0 0 0 0 0 0 0 0 0 0 0 0 0 0 0 0 0 0 0 0 0 0 0 0 0 0 0 0 0 0 0 0 0 0 0 0 0 0 0 0 0 0 0 0 0 0 0 0 0 0 0 0 0 0 0 0 0 0 0 0 0 0 0 0 0 0 0 0 0 0 0 0 0 0 0 0 0 0 0 0 0 0 0 0 0 0 0 0 0 0 0 0 0 0 0 0 0 0 0 0 0 0 0 0 0 0 0 0 0 0 0 0 0 0 0 0 0 0 0 0 0 0 0 0 0 0 0 0 0 0 0 0 0 0 0 0 0 0 0 0 0 0 0 0 0 0 0 0 0 0 0 0 0 0 0 0 0 0 0 0 0 0 0 0 0 0 0 0 0 0 0 0 0 0 0 0 0 0 0 0 0 0 0 0 0 0 0 0 0 0 0 0 0 0 0 0 0 0 0 0 0 0 0 0 0 0 0 0 0 0 0 0 0 0 0 0 0 0 0 0 0 0 0 0 0 0 0 0 0 0 0 0 0 0 0 0 0 0 0 0 0 0 0 0 0 0 0 0 0 0 0 0 0 0 0 0 0 0 0 0 0 0 0 0 0 0 0 0 0 0 0 0 0 0 0 0 0 0 0 0 0 0 0 0 0 0 0 0 0 0 0 0 0 0 0 0 0 0 0 0 0 0 0 0 0 0 0 0 0 0 0 0 0 0 0 0 0 0 0 0 0 0 0 0 0 0 0 0 0 0 0 0 0 0 0 0 0 0 0 0 0 0 0 0 0 0 0 0 0 0 0 0 0 0 0 0 0 0 0 0 0 0 0 0 0 0 0 0 0 0 0 0 0 0 0 0 0 0 0 0 0 0 0 0 0 0 0 0 0 0 0 0 0 0 0 0 0 0 0 0 0 0 0 0 0 0 0 0 0 0 0 0 0 0 0 0 0 0 0 0 0 0 0 0 0 0 0 0 0 0 0 0 0 0 0 0 0 0 0 0 0 0 0 0 0 0 0 0 0 0 0 0 0 0 0 0 0 0 0 0 0 0 0 0 0 0 0 0 0 0 0 0 0 0 0 0 0 0 0 0 0 0 0 0 0 0 0 0 0 0 0 0 0 0 0 0 0 0 0 0 0 0 0 0 0 0 0 0 0 0 0 0 0 0 0 0 0 0 0 0 0 0 0 0 0 0 0 0 0 0 0 0 0 0 0 0 0 0 0 0 0 0 0 0 0 0 0 0 0 0 0 0 0 0 0 0 0 0 0 0 0 0 0 0 0 0 0 0 0 0 0 0 0 0 0 0 0 0 0 0 0 0 0 0 0 0 0 0 0 0 0 0 0 0 0 0 0 0 0 0 0 0 0 0 0 0 0 0 0 0 0 0 0 0 0 0 0 0 0 0 0 0 0 0 0 0 0 0 0 0 0 0 0 0 0 0 0 0 0 0 0 0 0 0 0 0 0 0 0 0 0 0 0 0 0 0 0 0 0 0 0 0 0 0 0 0 0 0 0 0 0 0 0 0 0 0 0 0 0 0 0 ];
thru(2,:) = [ 0.184 0.196 0.21 0.1735 0.176 0.1875 0.1585 0.1765 0.1615 0.1755 0.2035 0.2025 0.186 0.1825 0.182 0.19 0.192 0.183 0.1905 0.1655 0.1675 0.197 0.1605 0.1785 0.197 0.1965 0.167 0.1655 0.1885 0.178 0.185 0.1905 0.181 0.1765 0.1955 0.189 0.185 0.188 0.207 0.179 0.194 0.198 0.192 0.195 0.1955 0.189 0.1855 0.179 0.1905 0.189 0.1745 0.197 0.181 0.2095 0.179 0.1915 0.216 0.1685 0.1995 0.2005 0.1765 0.175 0.162 0.1775 0.1875 0.183 0.1845 0.1715 0.1685 0.1755 0.206 0.186 0.1875 0.1755 0.177 0.1805 0.1845 0.1895 0.2045 0.191 0.185 0.163 0.1765 0.192 0.1645 0.1905 0.185 0.1865 0.1825 0.191 0.1895 0.179 0.178 0.1835 0.179 0.204 0.195 0.182 0.1645 0.182 0.203 0.202 0.183 0.1835 0.21 0.193 0.1835 0.21 0.17 0.18 0.173 0.192 0.187 0.197 0.168 0.2035 0.1915 0.163 0.1745 0.1825 0.191 0.1825 0.1875 0.1865 0.1845 0.1745 0.173 0.1735 0.183 0.18 0.1875 0.175 0.195 0.176 0.1935 0.1695 0.188 0.1705 0.1715 0.191 0.1975 0.181 0.1825 0.1925 0.1865 0.2105 0.173 0.1815 0.1875 0.1835 0.174 0.1805 0.2065 0.174 0.1965 0.1945 0.2 0.206 0.195 0.189 0.164 0.1675 0.1735 0.18 0.1845 0.199 0.162 0.1715 0.2065 0.194 0.1835 0.1825 0.202 0.179 0.1935 0.2015 0.179 0.194 0.203 0.1825 0.181 0.2015 0.201 0.2045 0.181 0.205 0.1925 0.179 0.175 0.1725 0.189 0.1745 0.1815 0.187 0.192 0.18 0.1865 0.1915 0.1855 0.185 0.172 0.177 0.1855 0.174 0.181 0.176 0.188 0.1705 0.179 0.187 0.192 0.213 0.1745 0.182 0.184 0.1845 0.1905 0.1905 0.193 0.1875 0.1745 0.172 0.1845 0.1995 0.181 0.1755 0.1855 0.181 0.182 0.1785 0.1905 0.173 0.185 0.1855 0.1875 0.182 0.1965 0.1935 0.203 0.1815 0.19 0.1905 0.1945 0.1925 0.1935 0.1665 0.1765 0.19 0.186 0.197 0.1865 0.181 0.177 0.197 0.164 0.202 0.2115 0.1865 0.1765 0.1925 0.191 0.1975 0.2065 0.194 0.1845 0.183 0.1975 0.1865 0.191 0.1765 0.2015 0.175 0.1965 0.1805 0.177 0.18 0.197 0.187 0.1925 0.192 0.1995 0.192 0.1815 0.184 0.2145 0.1585 0.19 0.1985 0.1845 0.1885 0.1865 0.166 0.1785 0.1785 0.1915 0.194 0.191 0.1865 0.1895 0.1955 0.176 0.2005 0.1755 0.1975 0.1805 0.187 0.2 0.1995 0.1765 0.1785 0.1855 0.1895 0.193 0.1825 0.161 0.2065 0.183 0.181 0.19 0.1945 0.198 0.184 0.181 0.1915 0.181 0.1695 0.1885 0.202 0.187 0.1795 0.1735 0.1955 0.183 0.2065 0.19 0.1915 0.1785 0.1835 0.197 0.1795 0.2005 0.1805 0.192 0.1765 0.1955 0.183 0.1975 0.194 0.186 0.1695 0.178 0.199 0.181 0.1835 0.196 0.194 0.1675 0.1875 0.185 0.187 0.1755 0.1985 0.187 0.223 0.199 0.1745 0.1735 0.1645 0.1905 0.16 0.1925 0.1885 0.185 0.1845 0.1905 0.1815 0.192 0.1955 0.178 0.1825 0.202 0.183 0.1825 0.205 0.1725 0.185 0.177 0.1705 0.191 0.1895 0.191 0.1715 0.17 0.1595 0.186 0.1925 0.197 0.1945 0.189 0.179 0.1875 0.1935 0.1865 0.1805 0.1905 0.181 0.1905 0.182 0.195 0.1875 0.195 0.194 0.184 0.202 0.1885 0.178 0.1925 0.172 0.1915 0.206 0.1815 0.1635 0.1855 0.1805 0.1915 0.1915 0.169 0.191 0.195 0.181 0.2 0.1825 0.184 0.163 0.214 0.196 0.1745 0.197 0.1915 0.1725 0.1845 0.18 0.18 0.178 0.172 0.1755 0.1805 0.18 0.168 0.179 0.1885 0.177 0.1815 0.187 0.186 0.1815 0.167 0.175 0.213 0.188 0.1925 0.192 0.188 0.1895 0.1755 0.184 0.1755 0.205 0.185 0.2 0.186 0.1765 0.1825 0.1785 0.1905 0.1735 0.1695 0.184 0.181 0.1775 0.1895 0.1725 0.185 0.179 0.175 0.192 0.1795 0.171 0.1915 0.1835 0.1905 0.181 0.1925 0.1845 0.171 0.1855 0.1765 0.2115 0.1735 0.1735 0.175 0.194 0.18 0.19 0.188 0.1785 0.192 0.1675 0.1845 0.19 0.2015 0.1765 0.177 0.172 0.1845 0.1815 0.183 0.2055 0.1975 0.1825 0.168 0.17 0.181 0.2055 0.189 0.188 0.193 0.164 0.1995 0.188 0.191 0.1705 0.201 0.18 0.178 0.198 0.181 0.1905 0.1905 0.198 0.195 0.195 0.1855 0.1975 0.1785 0.184 0.1785 0.19 0.1895 0.1915 0.1615 0.1875 0.187 0.188 0.1855 0.1705 0.1685 0.188 0.189 0.1725 0.205 0.1895 0.1855 0.188 0.1805 0.195 0.205 0.189 0.1785 0.181 0.194 0.2055 0.188 0.19 0.1975 0.2025 0.182 0.168 0.184 0.178 0.19 0.181 0.1555 0.202 0.203 0.202 0.1775 0.1915 0.1765 0.187 0.1915 0.178 0.1985 0.189 0.1835 0.1705 0.1915 0.201 0.174 0.188 0.177 0.1725 0.1655 0.1745 0.2055 0.1965 0.2065 0.183 0.173 0.188 0.1825 0.181 0.1895 0.1765 0.1865 0.185 0.174 0.1785 0.1675 0.1855 0.185 0.182 0.193 0.197 0.184 0.185 0.1845 0.198 0.2115 0.187 0.174 0.1745 0.2075 0.159 0.1855 0.186 0.184 0.186 0.1845 0.1855 0.2055 0.179 0.1655 0.17 0.1655 0.1985 0.178 0.1765 0.188 0.185 0.177 0.181 0.1935 0.1835 0.2085 0.1675 0.1795 0.185 0.1795 0.1655 0.186 0.203 0.1635 0.216 0.193 0.1995 0.1725 0.171 0.178 0.182 0.1875 0.1905 0.166 0.1835 0.1945 0.1975 0.162 0.186 0.1945 0.1855 0.18 0.185 0.1505 0.186 0.1635 0.1855 0.1685 0.1855 0.186 0.171 0.199 0.1925 0.185 0.199 0.1745 0.207 0.181 0.1955 0.184 0.1815 0.1855 0.1805 0.165 0.184 0.187 0.1945 0.1915 0.1805 0.187 0.185 0.1765 0.204 0.193 0.1745 0.1965 0.2005 0.182 0.192 0.1855 0.197 0.169 0.198 0.174 0.1765 0.2075 0.1835 0.189 0.18 0.1855 0.1805 0.1695 0.169 0.1825 0.196 0.184 0.196 0.1885 0.176 0.1805 0.2065 0.1785 0.178 0.1995 0.176 0.1965 0.186 0.173 0.176 0.1785 0.1775 0.198 0.184 0.177 0.1745 0.1725 0.1855 0.181 0.185 0.1745 0.1965 0.2005 0.194 0.171 0.2025 0.181 0.173 0.192 0.1875 0.187 0.1695 0.1685 0.1825 0.206 0.183 0.1865 0.188 0.1705 0.194 0.1955 0.1985 0.2055 0.195 0.192 0.197 0.191 0.2025 0.194 0.193 0.191 0.184 0.19 0.1945 0.166 0.1885 0.1865 0.195 0.185 0.205 0.184 0.1905 0.193 0.182 0.1845 0.189 0.1895 0.1775 0.1965 0.1745 0.19 0.184 0.1645 0.207 0.2025 0.1935 0.175 0.1805 0.173 0.1785 0.174 0.172 0.167 0.187 0.1745 0.172 0.1815 0.1725 0.2055 0.19 0.175 0.1715 0.195 0.205 0.197 0.1765 0.1895 0.1765 0.1985 0.1955 0.183 0.195 0.1795 0.181 0.186 0.1915 0.187 0.2085 0.189 0.19 0.1905 0.1925 0.1695 0.1925 0.157 0.1905 0.18 0.1785 0.176 0.172 0.186 0.193 0.205 0.1885 0.1955 0.1805 0.1795 0.1695 0.1775 0.193 0.1885 0.207 0.17 0.1845 0.1815 0.181 0.2 0.1725 0.189 0.185 0.1785 0.1805 0.186 0.1895 0.2095 0.1925 0.1745 0.1815 0.1935 0.171 0.1915 0.2125 0.1865 0.177 0.191 0.1775 0.1775 0.178 0.1715 0.1735 0.1785 0.1985 0.1995 0.1815 0.182 0.171 0.208 0.192 0.185 0.181 0.189 0.183 0.1805 0.184 0.188 0.176 0.1725 0.182 0.182 0.1835 0.1865 0.191 0.1955 0.201 0.187 0.187 0.188 0.19 0.176 0.207 0.194 0.175 0.193 0.185 0.177 0.186 0.177 0.2025 0.1945 0.1815 0.1795 0.19 0.171 0.1905 0.1765 0.1925 0.176 0.1815 0.1715 0.2025 0.1805 0.1905 0.1775 0.1905 0.179 0.199 0.191 0.203 0.1915 0.1735 0.1895 0.1855 0.1935 0.16 0.1735 0.1815 0.21 0.1695 0.192 0.1935 0.1705 0.196 0.1775 0.175 0.203 0.186 0.1715 0.2015 0.198 0.197 0.208 0.188 0.18 0.1875 0.182 0.189 0.174 0.194 0.206 0.161 0.184 0.1865 0.212 0.1775 0.179 0.1825 0.167 0.18 0.1865 0.184 0.172 0.186 0.1745 0.18 0.1955 0.187 0.1835 0.181 0.18 0.194 0.1895 0.1995 0.166 0.1885 0.1895 0.173 0.1965 0.1795 0.172 0.1765 0.175 0.1695 0.1925 0.179 0.193 0.183 0.202 0.1885 0.192 0.1925 0.2025 0.191 0.194 0.18 0.203 0.185 0.1915 0.201 0.1815 0.174 0.1815 0.167 0.197 0.199 0.1685 0.181 0.18 0.1785 0.167 0.1755 0.1845 0.176 0.1885 0.194 0.196 0.1795 0.1805 0.183 ];
% latency change    = 0.00214337
% throughput change = 0.0602917
I am thread 0
I am thread 2
I am thread 1
I am thread 3
I am thread 5
I am thread 6
I am thread 4
I am thread 7
I am thread 8
I am thread 9
I am thread 10
I am thread 11
I am thread 12
I am thread 13
I am thread 14
I am thread 15
0%=================================
% Average latency = 116.552
% Accepted packets = 0.161 at node 582 (avg = 0.189452)
lat(3) = 116.552;
bins = [ 0 ...999];
freq = [ 0 472 1308 473 66 1 3 0 0 0 0 3087 8359 4121 777 109 22 0 0 0 0 0 0 0 0 0 0 0 0 0 0 0 0 0 0 0 0 0 0 0 0 0 0 0 0 0 0 0 0 0 0 0 0 0 0 0 0 0 0 0 0 0 0 0 0 0 0 0 0 0 0 0 0 0 0 0 0 0 0 0 0 0 0 0 0 0 0 0 0 0 0 0 0 0 0 0 0 0 0 0 0 1779 4497 2320 445 66 7 0 0 0 0 21016 58157 35705 9690 2043 394 70 11 3 0 61337 184891 132595 48740 13382 3266 743 177 40 9 3 0 0 0 0 0 0 0 0 0 0 0 0 0 0 0 0 0 0 0 0 0 0 0 0 0 0 0 0 0 0 0 0 0 0 0 0 0 0 0 0 0 0 0 0 0 0 0 0 0 0 0 0 0 0 0 0 0 0 0 0 0 0 0 0 0 0 0 0 0 0 0 0 0 0 0 0 0 0 0 0 0 0 0 0 0 0 0 0 0 0 0 0 0 0 0 0 0 0 0 0 0 0 0 0 0 0 0 0 0 0 0 0 0 0 0 0 0 0 0 0 0 0 0 0 0 0 0 0 0 0 0 0 0 0 0 0 0 0 0 0 0 0 0 0 0 0 0 0 0 0 0 0 0 0 0 0 0 0 0 0 0 0 0 0 0 0 0 0 0 0 0 0 0 0 0 0 0 0 0 0 0 0 0 0 0 0 0 0 0 0 0 0 0 0 0 0 0 0 0 0 0 0 0 0 0 0 0 0 0 0 0 0 0 0 0 0 0 0 0 0 0 0 0 0 0 0 0 0 0 0 0 0 0 0 0 0 0 0 0 0 0 0 0 0 0 0 0 0 0 0 0 0 0 0 0 0 0 0 0 0 0 0 0 0 0 0 0 0 0 0 0 0 0 0 0 0 0 0 0 0 0 0 0 0 0 0 0 0 0 0 0 0 0 0 0 0 0 0 0 0 0 0 0 0 0 0 0 0 0 0 0 0 0 0 0 0 0 0 0 0 0 0 0 0 0 0 0 0 0 0 0 0 0 0 0 0 0 0 0 0 0 0 0 0 0 0 0 0 0 0 0 0 0 0 0 0 0 0 0 0 0 0 0 0 0 0 0 0 0 0 0 0 0 0 0 0 0 0 0 0 0 0 0 0 0 0 0 0 0 0 0 0 0 0 0 0 0 0 0 0 0 0 0 0 0 0 0 0 0 0 0 0 0 0 0 0 0 0 0 0 0 0 0 0 0 0 0 0 0 0 0 0 0 0 0 0 0 0 0 0 0 0 0 0 0 0 0 0 0 0 0 0 0 0 0 0 0 0 0 0 0 0 0 0 0 0 0 0 0 0 0 0 0 0 0 0 0 0 0 0 0 0 0 0 0 0 0 0 0 0 0 0 0 0 0 0 0 0 0 0 0 0 0 0 0 0 0 0 0 0 0 0 0 0 0 0 0 0 0 0 0 0 0 0 0 0 0 0 0 0 0 0 0 0 0 0 0 0 0 0 0 0 0 0 0 0 0 0 0 0 0 0 0 0 0 0 0 0 0 0 0 0 0 0 0 0 0 0 0 0 0 0 0 0 0 0 0 0 0 0 0 0 0 0 0 0 0 0 0 0 0 0 0 0 0 0 0 0 0 0 0 0 0 0 0 0 0 0 0 0 0 0 0 0 0 0 0 0 0 0 0 0 0 0 0 0 0 0 0 0 0 0 0 0 0 0 0 0 0 0 0 0 0 0 0 0 0 0 0 0 0 0 0 0 0 0 0 0 0 0 0 0 0 0 0 0 0 0 0 0 0 0 0 0 0 0 0 0 0 0 0 0 0 0 0 0 0 0 0 0 0 0 0 0 0 0 0 0 0 0 0 0 0 0 0 0 0 0 0 0 0 0 0 0 0 0 0 0 0 0 0 0 0 0 0 0 0 0 0 0 0 0 0 0 0 0 0 0 0 0 0 0 0 0 0 0 0 0 0 0 0 0 0 0 0 0 0 0 0 0 0 0 0 0 0 0 0 0 0 0 0 0 0 0 0 0 0 0 0 0 0 0 0 0 0 0 0 0 0 0 0 0 0 0 0 0 0 0 0 0 0 0 0 0 0 0 0 0 0 0 0 0 0 0 0 0 0 0 0 0 0 0 0 0 0 0 0 0 0 0 0 0 0 0 0 0 0 0 0 0 0 0 0 0 0 0 0 0 0 0 0 0 0 0 0 0 0 0 0 0 0 0 0 0 0 0 0 0 ];
thru(3,:) = [ 0.187667 0.193 0.204667 0.179333 0.177 0.195667 0.181 0.179333 0.175667 0.188 0.207333 0.205667 0.188667 0.188 0.193333 0.201 0.19 0.185667 0.207333 0.178667 0.179 0.201333 0.168333 0.175333 0.188667 0.195333 0.173333 0.174667 0.182333 0.193 0.192333 0.189667 0.185 0.18 0.198333 0.198333 0.192667 0.186 0.203667 0.183333 0.188667 0.192667 0.189667 0.194333 0.198 0.191 0.189667 0.178667 0.19 0.192 0.180667 0.196333 0.19 0.214667 0.189667 0.191 0.205667 0.177667 0.198 0.202 0.193 0.178667 0.183333 0.188667 0.195667 0.181 0.188667 0.185 0.173333 0.186333 0.191333 0.184333 0.194667 0.181 0.181 0.19 0.18 0.188 0.207333 0.182333 0.189 0.182 0.193667 0.199 0.164667 0.184333 0.201 0.189 0.194667 0.186 0.187333 0.185 0.182333 0.185667 0.195 0.203 0.193 0.192667 0.169667 0.197333 0.203667 0.188333 0.188667 0.181667 0.200333 0.193667 0.187333 0.217333 0.182333 0.183 0.182 0.189667 0.191333 0.195333 0.180667 0.207333 0.192333 0.174 0.184667 0.186 0.199333 0.195333 0.186 0.195 0.193 0.185667 0.180667 0.182667 0.187 0.180333 0.192667 0.181 0.198333 0.184 0.208 0.171 0.188333 0.185333 0.184333 0.197333 0.196 0.197333 0.181333 0.197667 0.182667 0.205 0.180333 0.186 0.185667 0.181 0.186 0.191 0.199 0.192667 0.203333 0.205333 0.191 0.201333 0.196667 0.191333 0.172333 0.173667 0.185 0.184667 0.192667 0.192 0.178333 0.176667 0.202333 0.203 0.186333 0.187667 0.211 0.188 0.189667 0.209333 0.181333 0.187333 0.202333 0.19 0.194333 0.2 0.212333 0.212333 0.187333 0.199333 0.193 0.184 0.184333 0.182 0.194667 0.171333 0.185333 0.181667 0.194 0.194 0.183 0.201333 0.194667 0.19 0.181667 0.186333 0.183667 0.176 0.182667 0.182333 0.184667 0.178667 0.189333 0.199333 0.19 0.206333 0.182667 0.186 0.186 0.180333 0.185 0.196 0.182333 0.189 0.184 0.187333 0.189667 0.201667 0.196333 0.175 0.187333 0.180667 0.176 0.18 0.199333 0.183 0.192 0.185333 0.19 0.190333 0.196667 0.201667 0.203 0.185333 0.193333 0.193333 0.193333 0.186 0.206 0.166 0.174 0.190667 0.188667 0.191 0.191333 0.189 0.186333 0.195 0.181667 0.197333 0.203333 0.189333 0.179667 0.183 0.192333 0.191333 0.202 0.200667 0.184667 0.195 0.190333 0.192667 0.199667 0.181 0.199 0.191333 0.196 0.195333 0.192667 0.184333 0.199667 0.190333 0.197 0.195 0.204 0.185 0.196333 0.194333 0.219 0.172333 0.189333 0.204333 0.180333 0.19 0.179333 0.171667 0.180667 0.181 0.191 0.196 0.191333 0.191667 0.188667 0.200333 0.181667 0.202333 0.184667 0.198667 0.191 0.196667 0.199667 0.196333 0.174333 0.186 0.186667 0.187 0.196667 0.183 0.174667 0.211 0.182 0.189 0.195 0.205333 0.199 0.188333 0.177667 0.191 0.187667 0.176667 0.197333 0.197333 0.189667 0.182333 0.181333 0.189667 0.190333 0.194 0.188667 0.188 0.179333 0.181333 0.198333 0.189 0.197667 0.182 0.200333 0.182667 0.203333 0.197333 0.202333 0.188 0.188333 0.182 0.185 0.212 0.189 0.185667 0.200333 0.198667 0.188333 0.188 0.193667 0.186667 0.179667 0.204333 0.188333 0.219667 0.202333 0.176 0.177 0.171667 0.194667 0.165333 0.201333 0.185333 0.180667 0.183333 0.194667 0.18 0.199667 0.203667 0.186 0.189667 0.206 0.183 0.181 0.205333 0.183 0.184333 0.173333 0.182 0.187667 0.194 0.2 0.181 0.179667 0.173333 0.182 0.189 0.195 0.201333 0.205667 0.183667 0.189667 0.185333 0.187 0.177 0.187333 0.192 0.188333 0.187333 0.195333 0.191667 0.203667 0.198667 0.185667 0.206667 0.196667 0.182667 0.189 0.179 0.186 0.205 0.175667 0.173667 0.185667 0.186667 0.189667 0.192333 0.169333 0.194333 0.198 0.178333 0.2 0.186667 0.193667 0.171667 0.205 0.188667 0.178333 0.208333 0.188 0.184333 0.176 0.182667 0.181667 0.187667 0.191333 0.184333 0.180667 0.191333 0.189 0.177 0.196667 0.177 0.173333 0.196 0.191667 0.193 0.174667 0.181333 0.212 0.185667 0.191333 0.186333 0.189667 0.194667 0.182 0.189 0.183667 0.205 0.200667 0.196667 0.193667 0.182 0.201333 0.183 0.193333 0.179 0.174333 0.186667 0.187667 0.183667 0.198 0.172667 0.191333 0.19 0.182667 0.199667 0.183667 0.179333 0.191667 0.182 0.184333 0.188667 0.197333 0.186333 0.176667 0.180333 0.191 0.203333 0.183333 0.181333 0.187 0.193333 0.184333 0.187333 0.194667 0.186667 0.193 0.186333 0.191 0.182 0.21 0.183333 0.186333 0.18 0.185333 0.186333 0.193667 0.200333 0.200667 0.188333 0.176333 0.179333 0.195333 0.206667 0.192333 0.193333 0.197333 0.171 0.214 0.192333 0.198 0.175333 0.194333 0.192333 0.178667 0.202 0.179 0.195667 0.188667 0.206 0.186667 0.185 0.182 0.195667 0.191667 0.190333 0.186333 0.198 0.203 0.198667 0.169667 0.185333 0.183333 0.193 0.190667 0.184333 0.176333 0.190667 0.197667 0.183333 0.201 0.185333 0.187667 0.189 0.188333 0.198 0.195667 0.192667 0.178 0.184 0.196 0.205333 0.185333 0.197333 0.199 0.194667 0.19 0.183 0.188 0.195667 0.199 0.184 0.161 0.199 0.211 0.203 0.177667 0.192333 0.190667 0.187667 0.190667 0.18 0.208667 0.193667 0.179333 0.188667 0.198667 0.199 0.189 0.199333 0.182 0.173667 0.184 0.175333 0.200667 0.195333 0.203333 0.184667 0.187667 0.203333 0.184667 0.184 0.188667 0.176333 0.185333 0.192333 0.179667 0.188667 0.181 0.186667 0.182 0.184667 0.193 0.197333 0.191333 0.188 0.186 0.196333 0.207333 0.190333 0.183 0.179667 0.201333 0.179333 0.198 0.185333 0.195333 0.183 0.181667 0.184667 0.207667 0.185 0.172333 0.176 0.179333 0.199333 0.191667 0.182333 0.187 0.187667 0.179333 0.181667 0.185333 0.191333 0.206333 0.187333 0.184 0.182667 0.184 0.18 0.188 0.191 0.175 0.211 0.188667 0.202333 0.181 0.175 0.176 0.193667 0.203333 0.187333 0.165333 0.176333 0.188 0.193667 0.177 0.192333 0.196667 0.191667 0.179333 0.188667 0.164667 0.193 0.164333 0.187 0.185333 0.181667 0.196 0.18 0.200667 0.196667 0.186 0.205 0.179667 0.203333 0.186667 0.198 0.178333 0.18 0.184333 0.189333 0.177 0.197667 0.19 0.178 0.192667 0.188 0.180667 0.187333 0.171333 0.208667 0.195667 0.177333 0.204 0.197667 0.185333 0.193 0.192333 0.193 0.179667 0.187 0.172 0.189 0.194667 0.197333 0.201 0.194333 0.184333 0.185 0.181 0.188667 0.189 0.204333 0.191333 0.195667 0.197333 0.175667 0.182333 0.198333 0.182333 0.19 0.199333 0.185333 0.192 0.183667 0.186 0.193 0.191 0.18 0.200667 0.182 0.183333 0.188667 0.184333 0.184 0.185333 0.182 0.181667 0.200667 0.196 0.189333 0.185667 0.203 0.190667 0.189667 0.195333 0.195 0.184667 0.190333 0.180667 0.187667 0.215333 0.191 0.196333 0.184667 0.173 0.198 0.188 0.198 0.200333 0.199667 0.193333 0.202 0.194 0.200667 0.190333 0.190333 0.198333 0.186667 0.189333 0.201 0.180333 0.190667 0.192667 0.202333 0.192 0.208667 0.191 0.197333 0.201 0.181333 0.186 0.189667 0.189667 0.178333 0.190667 0.192667 0.194667 0.178 0.175 0.197667 0.212333 0.193667 0.186 0.181 0.189333 0.190333 0.187 0.181 0.184 0.189333 0.184667 0.178667 0.184333 0.179 0.208667 0.199 0.174 0.18 0.185333 0.199333 0.201667 0.180667 0.188667 0.190333 0.201667 0.193 0.186 0.207333 0.186667 0.185 0.187333 0.195333 0.19 0.2 0.192 0.190667 0.196667 0.191 0.172333 0.186667 0.175333 0.192667 0.186 0.180667 0.176333 0.189 0.186333 0.181 0.213333 0.202 0.197 0.193333 0.183667 0.181667 0.189667 0.199667 0.192 0.205333 0.181667 0.191 0.189667 0.183333 0.203 0.191 0.186 0.182 0.187 0.174667 0.197333 0.193 0.201 0.203 0.189333 0.184333 0.200667 0.185667 0.188667 0.211 0.187667 0.181667 0.202667 0.184 0.186 0.183333 0.177 0.169667 0.185333 0.19 0.201 0.186667 0.179333 0.174333 0.212333 0.195333 0.184667 0.181 0.2 0.191333 0.178 0.190667 0.191333 0.185333 0.195 0.184333 0.185 0.194667 0.194 0.194333 0.200333 0.203333 0.192667 0.187333 0.196333 0.206333 0.192667 0.202333 0.191333 0.170667 0.209333 0.191667 0.188333 0.184667 0.176667 0.207333 0.193667 0.179667 0.176333 0.189333 0.182667 0.188333 0.186333 0.197333 0.183333 0.194333 0.182 0.194 0.181667 0.193 0.185667 0.195333 0.184667 0.197667 0.192333 0.204667 0.193333 0.175333 0.194667 0.173 0.191667 0.175667 0.181667 0.193333 0.206667 0.175667 0.207667 0.191333 0.18 0.196 0.182333 0.183667 0.211667 0.184667 0.176667 0.201 0.195667 0.202667 0.213 0.189 0.172667 0.188 0.187333 0.19 0.182 0.198 0.207667 0.177333 0.189 0.18 0.210667 0.180667 0.187 0.185667 0.175667 0.180667 0.187 0.184667 0.173667 0.186667 0.186 0.187333 0.192667 0.191 0.195333 0.185 0.182667 0.193667 0.191 0.198333 0.176667 0.188667 0.19 0.190333 0.193667 0.189333 0.182 0.18 0.182 0.178 0.196333 0.188 0.203667 0.194 0.198667 0.196333 0.194 0.200333 0.188 0.190333 0.188333 0.178667 0.198667 0.181333 0.195 0.192333 0.188667 0.182667 0.174333 0.170667 0.199 0.196667 0.177667 0.181 0.176 0.178 0.175333 0.181667 0.197 0.179667 0.194 0.191667 0.188667 0.181667 0.181333 0.186667 ];
% latency change    = 0.000576049
% throughput change = 0.0206878
% Warmed up ...Time used is 3000 cycles
I am thread 0
I am thread 1
I am thread 2
I am thread 3
I am thread 4
I am thread 5
I am thread 7
I am thread I am thread I am thread 6
8
I am thread 10
9
I am thread 11
I am thread I am thread 13
12
I am thread I am thread 15
14
1%=================================
% Average latency = 116.162
% Accepted packets = 0.145 at node 227 (avg = 0.196254)
lat(4) = 116.162;
bins = [ 0 ...999];
freq = [ 0 168 424 188 17 2 0 0 0 0 0 1106 2692 1441 252 46 7 1 0 0 0 0 0 0 0 0 0 0 0 0 0 0 0 0 0 0 0 0 0 0 0 0 0 0 0 0 0 0 0 0 0 0 0 0 0 0 0 0 0 0 0 0 0 0 0 0 0 0 0 0 0 0 0 0 0 0 0 0 0 0 0 0 0 0 0 0 0 0 0 0 0 0 0 0 0 0 0 0 0 0 0 568 1345 760 140 14 0 0 0 1 0 6794 17483 10985 3021 709 140 31 5 2 0 19819 54866 39921 14978 4194 1008 245 57 15 4 5 1 0 0 0 0 0 0 0 0 0 0 0 0 0 0 0 0 0 0 0 0 0 0 0 0 0 0 0 0 0 0 0 0 0 0 0 0 0 0 0 0 0 0 0 0 0 0 0 0 0 0 0 0 0 0 0 0 0 0 0 0 0 0 0 0 0 0 0 0 0 0 0 0 0 0 0 0 0 0 0 0 0 0 0 0 0 0 0 0 0 0 0 0 0 0 0 0 0 0 0 0 0 0 0 0 0 0 0 0 0 0 0 0 0 0 0 0 0 0 0 0 0 0 0 0 0 0 0 0 0 0 0 0 0 0 0 0 0 0 0 0 0 0 0 0 0 0 0 0 0 0 0 0 0 0 0 0 0 0 0 0 0 0 0 0 0 0 0 0 0 0 0 0 0 0 0 0 0 0 0 0 0 0 0 0 0 0 0 0 0 0 0 0 0 0 0 0 0 0 0 0 0 0 0 0 0 0 0 0 0 0 0 0 0 0 0 0 0 0 0 0 0 0 0 0 0 0 0 0 0 0 0 0 0 0 0 0 0 0 0 0 0 0 0 0 0 0 0 0 0 0 0 0 0 0 0 0 0 0 0 0 0 0 0 0 0 0 0 0 0 0 0 0 0 0 0 0 0 0 0 0 0 0 0 0 0 0 0 0 0 0 0 0 0 0 0 0 0 0 0 0 0 0 0 0 0 0 0 0 0 0 0 0 0 0 0 0 0 0 0 0 0 0 0 0 0 0 0 0 0 0 0 0 0 0 0 0 0 0 0 0 0 0 0 0 0 0 0 0 0 0 0 0 0 0 0 0 0 0 0 0 0 0 0 0 0 0 0 0 0 0 0 0 0 0 0 0 0 0 0 0 0 0 0 0 0 0 0 0 0 0 0 0 0 0 0 0 0 0 0 0 0 0 0 0 0 0 0 0 0 0 0 0 0 0 0 0 0 0 0 0 0 0 0 0 0 0 0 0 0 0 0 0 0 0 0 0 0 0 0 0 0 0 0 0 0 0 0 0 0 0 0 0 0 0 0 0 0 0 0 0 0 0 0 0 0 0 0 0 0 0 0 0 0 0 0 0 0 0 0 0 0 0 0 0 0 0 0 0 0 0 0 0 0 0 0 0 0 0 0 0 0 0 0 0 0 0 0 0 0 0 0 0 0 0 0 0 0 0 0 0 0 0 0 0 0 0 0 0 0 0 0 0 0 0 0 0 0 0 0 0 0 0 0 0 0 0 0 0 0 0 0 0 0 0 0 0 0 0 0 0 0 0 0 0 0 0 0 0 0 0 0 0 0 0 0 0 0 0 0 0 0 0 0 0 0 0 0 0 0 0 0 0 0 0 0 0 0 0 0 0 0 0 0 0 0 0 0 0 0 0 0 0 0 0 0 0 0 0 0 0 0 0 0 0 0 0 0 0 0 0 0 0 0 0 0 0 0 0 0 0 0 0 0 0 0 0 0 0 0 0 0 0 0 0 0 0 0 0 0 0 0 0 0 0 0 0 0 0 0 0 0 0 0 0 0 0 0 0 0 0 0 0 0 0 0 0 0 0 0 0 0 0 0 0 0 0 0 0 0 0 0 0 0 0 0 0 0 0 0 0 0 0 0 0 0 0 0 0 0 0 0 0 0 0 0 0 0 0 0 0 0 0 0 0 0 0 0 0 0 0 0 0 0 0 0 0 0 0 0 0 0 0 0 0 0 0 0 0 0 0 0 0 0 0 0 0 0 0 0 0 0 0 0 0 0 0 0 0 0 0 0 0 0 0 0 0 0 0 0 0 0 0 0 0 0 0 0 0 0 0 0 0 0 0 0 0 0 0 0 0 0 0 0 0 0 0 0 0 0 0 0 0 0 0 0 0 0 0 0 0 0 0 0 0 0 0 0 0 0 0 0 0 0 0 0 0 0 0 0 0 0 0 0 0 0 0 0 0 0 0 0 0 0 0 0 0 0 ];
thru(4,:) = [ 0.211 0.224 0.19 0.198 0.18 0.207 0.191 0.2 0.206 0.18 0.242 0.191 0.209 0.219 0.205 0.227 0.184 0.202 0.181 0.2 0.185 0.181 0.187 0.178 0.209 0.213 0.2 0.194 0.18 0.187 0.221 0.21 0.199 0.228 0.191 0.187 0.165 0.196 0.182 0.191 0.197 0.189 0.167 0.228 0.2 0.192 0.228 0.209 0.221 0.192 0.184 0.189 0.191 0.168 0.198 0.165 0.185 0.208 0.191 0.227 0.197 0.204 0.188 0.203 0.165 0.168 0.195 0.206 0.193 0.169 0.219 0.206 0.166 0.201 0.212 0.186 0.204 0.211 0.224 0.192 0.193 0.218 0.186 0.204 0.192 0.187 0.208 0.155 0.199 0.179 0.192 0.164 0.201 0.169 0.193 0.209 0.202 0.202 0.192 0.201 0.186 0.228 0.233 0.199 0.218 0.216 0.219 0.196 0.215 0.213 0.185 0.174 0.181 0.173 0.227 0.192 0.191 0.192 0.175 0.181 0.205 0.188 0.23 0.211 0.201 0.21 0.189 0.186 0.201 0.2 0.19 0.192 0.202 0.193 0.196 0.186 0.197 0.185 0.192 0.214 0.198 0.242 0.184 0.178 0.21 0.185 0.177 0.218 0.19 0.202 0.205 0.184 0.194 0.182 0.177 0.216 0.192 0.197 0.205 0.213 0.194 0.204 0.187 0.18 0.204 0.2 0.215 0.206 0.203 0.205 0.218 0.21 0.213 0.222 0.205 0.201 0.179 0.212 0.178 0.212 0.201 0.191 0.193 0.191 0.248 0.173 0.2 0.192 0.2 0.195 0.17 0.168 0.211 0.194 0.191 0.232 0.184 0.204 0.217 0.179 0.21 0.199 0.191 0.171 0.2 0.196 0.184 0.17 0.22 0.181 0.187 0.212 0.211 0.197 0.187 0.211 0.224 0.204 0.188 0.209 0.201 0.161 0.205 0.189 0.191 0.198 0.216 0.145 0.193 0.208 0.205 0.198 0.173 0.196 0.205 0.204 0.192 0.214 0.207 0.186 0.187 0.201 0.201 0.212 0.189 0.193 0.193 0.205 0.218 0.185 0.195 0.163 0.183 0.162 0.184 0.179 0.192 0.214 0.198 0.2 0.201 0.185 0.213 0.161 0.199 0.193 0.205 0.201 0.199 0.209 0.19 0.195 0.214 0.189 0.209 0.204 0.18 0.177 0.227 0.22 0.179 0.206 0.188 0.197 0.198 0.176 0.191 0.214 0.222 0.201 0.186 0.179 0.219 0.21 0.233 0.219 0.199 0.209 0.21 0.173 0.214 0.213 0.179 0.173 0.187 0.19 0.192 0.231 0.203 0.164 0.194 0.202 0.192 0.216 0.172 0.179 0.171 0.201 0.192 0.189 0.175 0.212 0.188 0.2 0.204 0.201 0.21 0.198 0.201 0.195 0.162 0.181 0.196 0.203 0.18 0.201 0.195 0.222 0.199 0.193 0.195 0.201 0.203 0.188 0.207 0.193 0.202 0.195 0.169 0.167 0.202 0.21 0.192 0.186 0.18 0.205 0.186 0.235 0.197 0.213 0.199 0.213 0.193 0.189 0.203 0.192 0.173 0.189 0.191 0.169 0.182 0.215 0.161 0.185 0.198 0.205 0.216 0.179 0.201 0.207 0.232 0.181 0.178 0.194 0.196 0.167 0.207 0.2 0.167 0.237 0.182 0.217 0.196 0.209 0.171 0.189 0.227 0.201 0.196 0.196 0.197 0.192 0.184 0.196 0.195 0.192 0.189 0.17 0.179 0.194 0.214 0.201 0.173 0.203 0.215 0.201 0.185 0.159 0.18 0.187 0.185 0.217 0.195 0.203 0.182 0.198 0.229 0.202 0.188 0.176 0.197 0.186 0.205 0.193 0.169 0.174 0.185 0.17 0.221 0.221 0.201 0.2 0.179 0.174 0.165 0.212 0.204 0.203 0.167 0.219 0.193 0.175 0.223 0.163 0.214 0.187 0.168 0.248 0.192 0.173 0.19 0.166 0.196 0.196 0.193 0.164 0.181 0.188 0.19 0.184 0.188 0.199 0.18 0.182 0.211 0.192 0.191 0.171 0.182 0.217 0.205 0.236 0.201 0.199 0.203 0.183 0.192 0.23 0.182 0.194 0.178 0.202 0.203 0.212 0.217 0.182 0.234 0.195 0.208 0.187 0.186 0.172 0.212 0.173 0.187 0.187 0.213 0.219 0.146 0.193 0.19 0.167 0.175 0.213 0.183 0.193 0.199 0.206 0.198 0.172 0.172 0.199 0.194 0.182 0.192 0.189 0.17 0.21 0.206 0.18 0.202 0.205 0.188 0.2 0.215 0.204 0.173 0.193 0.167 0.218 0.205 0.188 0.206 0.2 0.191 0.17 0.212 0.215 0.216 0.193 0.211 0.209 0.199 0.203 0.202 0.197 0.217 0.184 0.219 0.195 0.191 0.188 0.218 0.201 0.2 0.159 0.19 0.181 0.199 0.203 0.214 0.188 0.194 0.192 0.202 0.17 0.192 0.181 0.219 0.225 0.217 0.208 0.197 0.213 0.205 0.177 0.191 0.187 0.207 0.219 0.185 0.206 0.174 0.179 0.212 0.219 0.179 0.196 0.211 0.214 0.216 0.243 0.182 0.188 0.196 0.217 0.207 0.249 0.195 0.198 0.207 0.205 0.193 0.213 0.211 0.17 0.186 0.213 0.176 0.191 0.204 0.203 0.196 0.191 0.212 0.188 0.203 0.208 0.221 0.222 0.193 0.187 0.168 0.198 0.177 0.188 0.22 0.231 0.211 0.176 0.2 0.181 0.201 0.213 0.206 0.209 0.202 0.212 0.168 0.197 0.202 0.167 0.197 0.189 0.221 0.199 0.183 0.191 0.207 0.202 0.186 0.192 0.189 0.202 0.177 0.225 0.179 0.227 0.244 0.213 0.22 0.175 0.207 0.185 0.198 0.181 0.204 0.192 0.191 0.19 0.198 0.186 0.191 0.203 0.206 0.179 0.183 0.198 0.17 0.21 0.182 0.186 0.168 0.195 0.217 0.219 0.158 0.206 0.173 0.202 0.225 0.197 0.205 0.196 0.194 0.197 0.181 0.206 0.189 0.195 0.198 0.203 0.164 0.212 0.222 0.164 0.168 0.184 0.196 0.255 0.227 0.177 0.184 0.207 0.199 0.179 0.185 0.184 0.181 0.164 0.204 0.209 0.199 0.183 0.185 0.191 0.223 0.207 0.195 0.18 0.203 0.191 0.166 0.229 0.207 0.202 0.202 0.189 0.192 0.199 0.206 0.191 0.167 0.187 0.193 0.19 0.178 0.21 0.193 0.198 0.198 0.2 0.175 0.183 0.18 0.181 0.187 0.207 0.206 0.173 0.171 0.185 0.204 0.188 0.191 0.191 0.196 0.193 0.199 0.192 0.178 0.191 0.198 0.167 0.176 0.208 0.193 0.209 0.208 0.218 0.214 0.192 0.211 0.19 0.214 0.195 0.204 0.186 0.19 0.196 0.216 0.226 0.202 0.191 0.191 0.167 0.212 0.179 0.198 0.182 0.194 0.187 0.192 0.203 0.199 0.212 0.22 0.199 0.189 0.196 0.205 0.19 0.183 0.193 0.186 0.178 0.181 0.203 0.198 0.211 0.194 0.217 0.193 0.221 0.192 0.174 0.183 0.21 0.209 0.201 0.182 0.227 0.193 0.17 0.211 0.203 0.206 0.156 0.199 0.162 0.198 0.193 0.219 0.193 0.211 0.22 0.17 0.185 0.187 0.187 0.214 0.185 0.204 0.194 0.189 0.205 0.191 0.176 0.216 0.203 0.217 0.176 0.222 0.203 0.217 0.176 0.206 0.203 0.218 0.182 0.218 0.241 0.191 0.203 0.215 0.192 0.203 0.213 0.172 0.189 0.214 0.202 0.183 0.19 0.233 0.19 0.207 0.207 0.191 0.211 0.204 0.205 0.212 0.208 0.222 0.204 0.192 0.205 0.19 0.198 0.191 0.208 0.226 0.176 0.174 0.155 0.21 0.187 0.23 0.211 0.187 0.218 0.217 0.185 0.181 0.187 0.184 0.187 0.211 0.216 0.207 0.216 0.169 0.173 0.201 0.199 0.205 0.217 0.183 0.153 0.212 0.227 0.19 0.194 0.192 0.192 0.198 0.195 0.184 0.197 0.201 0.195 0.18 0.168 0.21 0.188 0.188 0.182 0.174 0.194 0.229 0.209 0.208 0.179 0.19 0.203 0.199 0.19 0.179 0.197 0.189 0.198 0.198 0.189 0.179 0.19 0.186 0.19 0.2 0.211 0.164 0.213 0.206 0.196 0.202 0.189 0.184 0.193 0.205 0.182 0.198 0.188 0.196 0.195 0.2 0.213 0.19 0.206 0.16 0.194 0.206 0.182 0.164 0.171 0.225 0.185 0.213 0.188 0.219 0.187 0.206 0.174 0.182 0.212 0.192 0.182 0.213 0.22 0.198 0.197 0.195 0.225 0.19 0.198 0.229 0.196 0.198 0.205 0.201 0.191 0.195 0.207 0.193 0.162 0.178 0.191 0.187 0.206 0.177 0.213 0.195 0.196 0.193 0.217 0.209 0.197 0.198 0.172 0.19 0.192 0.211 0.196 0.17 0.224 0.194 0.198 ];
% latency change    = 0.00335084
% throughput change = 0.034658
I am thread 0
I am thread 2
I am thread 1
I am thread 3
I am thread 4
I am thread 5
I am thread 6
I am thread 7
I am thread 8
I am thread 11
I am thread 9
I am thread 12
I am thread 13
I am thread 10
I am thread 14
I am thread 15
1%=================================
% Average latency = 116.435
% Accepted packets = 0.159 at node 692 (avg = 0.196421)
lat(5) = 116.435;
bins = [ 0 ...999];
freq = [ 0 338 865 337 37 4 0 0 0 0 0 2095 5513 2777 520 82 12 4 0 0 0 0 0 0 0 0 0 0 0 0 0 0 0 0 0 0 0 0 0 0 0 0 0 0 0 0 0 0 0 0 0 0 0 0 0 0 0 0 0 0 0 0 0 0 0 0 0 0 0 0 0 0 0 0 0 0 0 0 0 0 0 0 0 0 0 0 0 0 0 0 0 0 0 0 0 0 0 0 0 0 0 1125 2943 1574 291 36 3 0 0 1 0 13861 37883 23617 6372 1445 274 64 10 2 0 40492 119480 85854 31593 8733 2140 522 112 30 6 5 1 0 0 0 0 0 0 0 0 0 0 0 0 0 0 0 0 0 0 0 0 0 0 0 0 0 0 0 0 0 0 0 0 0 0 0 0 0 0 0 0 0 0 0 0 0 0 0 0 0 0 0 0 0 0 0 0 0 0 0 0 0 0 0 0 0 0 0 0 0 0 0 0 0 0 0 0 0 0 0 0 0 0 0 0 0 0 0 0 0 0 0 0 0 0 0 0 0 0 0 0 0 0 0 0 0 0 0 0 0 0 0 0 0 0 0 0 0 0 0 0 0 0 0 0 0 0 0 0 0 0 0 0 0 0 0 0 0 0 0 0 0 0 0 0 0 0 0 0 0 0 0 0 0 0 0 0 0 0 0 0 0 0 0 0 0 0 0 0 0 0 0 0 0 0 0 0 0 0 0 0 0 0 0 0 0 0 0 0 0 0 0 0 0 0 0 0 0 0 0 0 0 0 0 0 0 0 0 0 0 0 0 0 0 0 0 0 0 0 0 0 0 0 0 0 0 0 0 0 0 0 0 0 0 0 0 0 0 0 0 0 0 0 0 0 0 0 0 0 0 0 0 0 0 0 0 0 0 0 0 0 0 0 0 0 0 0 0 0 0 0 0 0 0 0 0 0 0 0 0 0 0 0 0 0 0 0 0 0 0 0 0 0 0 0 0 0 0 0 0 0 0 0 0 0 0 0 0 0 0 0 0 0 0 0 0 0 0 0 0 0 0 0 0 0 0 0 0 0 0 0 0 0 0 0 0 0 0 0 0 0 0 0 0 0 0 0 0 0 0 0 0 0 0 0 0 0 0 0 0 0 0 0 0 0 0 0 0 0 0 0 0 0 0 0 0 0 0 0 0 0 0 0 0 0 0 0 0 0 0 0 0 0 0 0 0 0 0 0 0 0 0 0 0 0 0 0 0 0 0 0 0 0 0 0 0 0 0 0 0 0 0 0 0 0 0 0 0 0 0 0 0 0 0 0 0 0 0 0 0 0 0 0 0 0 0 0 0 0 0 0 0 0 0 0 0 0 0 0 0 0 0 0 0 0 0 0 0 0 0 0 0 0 0 0 0 0 0 0 0 0 0 0 0 0 0 0 0 0 0 0 0 0 0 0 0 0 0 0 0 0 0 0 0 0 0 0 0 0 0 0 0 0 0 0 0 0 0 0 0 0 0 0 0 0 0 0 0 0 0 0 0 0 0 0 0 0 0 0 0 0 0 0 0 0 0 0 0 0 0 0 0 0 0 0 0 0 0 0 0 0 0 0 0 0 0 0 0 0 0 0 0 0 0 0 0 0 0 0 0 0 0 0 0 0 0 0 0 0 0 0 0 0 0 0 0 0 0 0 0 0 0 0 0 0 0 0 0 0 0 0 0 0 0 0 0 0 0 0 0 0 0 0 0 0 0 0 0 0 0 0 0 0 0 0 0 0 0 0 0 0 0 0 0 0 0 0 0 0 0 0 0 0 0 0 0 0 0 0 0 0 0 0 0 0 0 0 0 0 0 0 0 0 0 0 0 0 0 0 0 0 0 0 0 0 0 0 0 0 0 0 0 0 0 0 0 0 0 0 0 0 0 0 0 0 0 0 0 0 0 0 0 0 0 0 0 0 0 0 0 0 0 0 0 0 0 0 0 0 0 0 0 0 0 0 0 0 0 0 0 0 0 0 0 0 0 0 0 0 0 0 0 0 0 0 0 0 0 0 0 0 0 0 0 0 0 0 0 0 0 0 0 0 0 0 0 0 0 0 0 0 0 0 0 0 0 0 0 0 0 0 0 0 0 0 0 0 0 0 0 0 0 0 0 0 0 0 0 0 0 0 0 0 0 0 0 0 0 0 0 0 0 0 0 0 0 0 0 0 0 0 0 0 0 0 0 0 0 0 0 0 0 0 0 0 0 0 0 0 0 0 0 0 0 0 0 0 0 0 0 0 0 0 0 0 0 0 0 ];
thru(5,:) = [ 0.205 0.2075 0.193 0.2095 0.191 0.19 0.202 0.198 0.1935 0.177 0.217 0.2035 0.2045 0.2045 0.2 0.2015 0.1735 0.211 0.1985 0.2155 0.191 0.1705 0.183 0.185 0.207 0.2095 0.1885 0.2015 0.1955 0.1895 0.212 0.1885 0.19 0.2095 0.2005 0.193 0.204 0.2075 0.1755 0.177 0.1865 0.1895 0.1655 0.201 0.19 0.19 0.216 0.2165 0.216 0.1845 0.187 0.1915 0.1845 0.1755 0.2 0.175 0.201 0.2055 0.1915 0.206 0.1945 0.2005 0.1945 0.184 0.1785 0.1845 0.201 0.2 0.1875 0.179 0.211 0.203 0.195 0.2045 0.2025 0.182 0.19 0.196 0.2095 0.1975 0.2005 0.203 0.1845 0.205 0.2045 0.208 0.194 0.1655 0.21 0.1925 0.205 0.1805 0.2095 0.17 0.19 0.206 0.2085 0.201 0.199 0.1945 0.1855 0.211 0.218 0.18 0.21 0.2045 0.198 0.197 0.1935 0.193 0.1985 0.194 0.1895 0.1795 0.202 0.1935 0.201 0.1925 0.178 0.1885 0.2085 0.1745 0.199 0.2135 0.209 0.206 0.1975 0.1905 0.194 0.204 0.1915 0.195 0.1915 0.185 0.1865 0.1875 0.2025 0.1965 0.186 0.1905 0.207 0.2165 0.2075 0.184 0.2055 0.1965 0.1865 0.199 0.194 0.2045 0.1865 0.1845 0.21 0.1895 0.188 0.194 0.189 0.204 0.1965 0.2085 0.201 0.206 0.1945 0.1835 0.1915 0.207 0.21 0.1965 0.1985 0.197 0.2215 0.2085 0.213 0.1935 0.181 0.1855 0.19 0.2095 0.179 0.192 0.198 0.192 0.1945 0.195 0.225 0.1745 0.202 0.197 0.196 0.1945 0.1955 0.1835 0.192 0.205 0.184 0.2245 0.2025 0.206 0.2165 0.1795 0.204 0.2005 0.1895 0.188 0.201 0.195 0.189 0.1825 0.209 0.1865 0.1925 0.2015 0.208 0.186 0.1735 0.192 0.206 0.1885 0.1985 0.2125 0.1955 0.179 0.1995 0.184 0.193 0.199 0.211 0.17 0.196 0.208 0.1905 0.198 0.1765 0.198 0.188 0.1905 0.202 0.1895 0.201 0.19 0.189 0.2015 0.1985 0.2035 0.1935 0.1895 0.201 0.208 0.224 0.1965 0.198 0.179 0.193 0.1685 0.1945 0.1875 0.2005 0.214 0.189 0.2 0.204 0.1975 0.2155 0.1845 0.2215 0.1995 0.204 0.192 0.1915 0.1995 0.1885 0.204 0.2175 0.189 0.211 0.1965 0.1815 0.1935 0.1925 0.1925 0.207 0.211 0.193 0.19 0.2105 0.192 0.181 0.2085 0.204 0.1965 0.189 0.18 0.224 0.203 0.2195 0.2205 0.204 0.2065 0.2 0.1865 0.2005 0.2015 0.196 0.179 0.19 0.1985 0.1775 0.2005 0.19 0.1785 0.1815 0.1935 0.201 0.204 0.192 0.202 0.183 0.1975 0.1965 0.2025 0.1835 0.216 0.199 0.204 0.199 0.204 0.201 0.201 0.1995 0.1885 0.1715 0.1765 0.2045 0.197 0.1865 0.2025 0.194 0.1965 0.201 0.1945 0.189 0.2005 0.204 0.202 0.203 0.198 0.206 0.2 0.189 0.177 0.207 0.202 0.191 0.1925 0.1885 0.1955 0.1955 0.211 0.1915 0.199 0.2 0.1985 0.191 0.1995 0.192 0.187 0.17 0.189 0.2015 0.1965 0.191 0.1925 0.1935 0.184 0.1945 0.2055 0.1845 0.186 0.2005 0.206 0.218 0.18 0.186 0.193 0.208 0.1805 0.208 0.211 0.177 0.22 0.19 0.2105 0.2 0.204 0.169 0.1905 0.2225 0.195 0.198 0.2055 0.206 0.203 0.1885 0.1975 0.201 0.1935 0.1745 0.182 0.1885 0.2035 0.208 0.203 0.1785 0.2015 0.217 0.2045 0.191 0.187 0.1845 0.2045 0.1965 0.208 0.1995 0.182 0.191 0.1945 0.205 0.2105 0.19 0.1885 0.204 0.179 0.191 0.198 0.183 0.204 0.1825 0.185 0.2175 0.216 0.1925 0.202 0.19 0.1815 0.177 0.1875 0.213 0.208 0.192 0.1965 0.182 0.184 0.2 0.1755 0.199 0.184 0.1765 0.2275 0.194 0.1735 0.1925 0.1795 0.1935 0.2045 0.1975 0.174 0.191 0.184 0.1865 0.1895 0.1955 0.192 0.195 0.1905 0.203 0.193 0.1945 0.196 0.181 0.194 0.203 0.2215 0.198 0.196 0.198 0.195 0.1975 0.2165 0.2015 0.1945 0.193 0.197 0.209 0.198 0.196 0.189 0.2115 0.178 0.1975 0.192 0.1845 0.192 0.192 0.1805 0.197 0.199 0.202 0.1945 0.175 0.19 0.193 0.184 0.1815 0.213 0.177 0.2055 0.1965 0.194 0.195 0.196 0.17 0.189 0.197 0.194 0.1965 0.194 0.189 0.2135 0.1995 0.198 0.202 0.213 0.189 0.194 0.208 0.199 0.187 0.203 0.18 0.2075 0.222 0.1955 0.211 0.2015 0.1885 0.1935 0.2075 0.207 0.206 0.19 0.2125 0.2185 0.223 0.2015 0.192 0.1965 0.219 0.193 0.212 0.2005 0.1775 0.1835 0.212 0.201 0.2015 0.16 0.2035 0.1915 0.2155 0.1955 0.2075 0.184 0.1805 0.1815 0.2075 0.1945 0.1855 0.1975 0.2165 0.211 0.2065 0.208 0.1925 0.208 0.207 0.183 0.1975 0.1995 0.2015 0.2035 0.1795 0.1915 0.182 0.191 0.2095 0.198 0.1835 0.197 0.212 0.197 0.198 0.2265 0.191 0.1875 0.198 0.2035 0.201 0.219 0.2 0.2 0.2065 0.189 0.1935 0.204 0.1935 0.1765 0.1975 0.1965 0.2 0.1875 0.19 0.211 0.207 0.1895 0.1905 0.191 0.1995 0.194 0.2015 0.21 0.202 0.1925 0.195 0.2 0.194 0.1885 0.228 0.2055 0.2065 0.1945 0.1945 0.188 0.1995 0.2105 0.2105 0.2105 0.1985 0.2145 0.1845 0.1965 0.2075 0.1785 0.1955 0.1815 0.2145 0.1895 0.18 0.1975 0.2 0.1935 0.176 0.2035 0.198 0.197 0.187 0.209 0.18 0.2225 0.2085 0.2135 0.2155 0.189 0.216 0.1795 0.207 0.186 0.197 0.199 0.2075 0.1755 0.199 0.199 0.188 0.2045 0.202 0.2085 0.187 0.1995 0.186 0.206 0.196 0.1935 0.159 0.1955 0.2045 0.2095 0.185 0.2025 0.175 0.1945 0.212 0.2035 0.1935 0.1995 0.2085 0.203 0.173 0.205 0.192 0.2015 0.1885 0.2155 0.182 0.2065 0.21 0.178 0.1855 0.19 0.2165 0.2235 0.211 0.1945 0.1875 0.1955 0.2025 0.1795 0.191 0.1765 0.194 0.179 0.1875 0.198 0.213 0.1915 0.177 0.1925 0.211 0.1925 0.203 0.1785 0.2075 0.1885 0.197 0.2195 0.2075 0.2065 0.195 0.2015 0.1915 0.1945 0.201 0.192 0.189 0.1945 0.2015 0.1895 0.183 0.1895 0.204 0.1925 0.194 0.202 0.1835 0.1825 0.201 0.1975 0.1815 0.195 0.1945 0.183 0.1885 0.2 0.203 0.1995 0.205 0.193 0.196 0.197 0.187 0.205 0.1825 0.181 0.195 0.1815 0.1925 0.2115 0.1955 0.2015 0.184 0.2165 0.201 0.204 0.2085 0.199 0.205 0.199 0.2045 0.2075 0.189 0.1865 0.216 0.205 0.2 0.1925 0.1905 0.18 0.2085 0.1865 0.1935 0.189 0.205 0.181 0.192 0.199 0.208 0.1935 0.201 0.187 0.2055 0.1895 0.2075 0.1975 0.1785 0.1865 0.1845 0.1875 0.177 0.1765 0.1985 0.2015 0.1945 0.199 0.197 0.2075 0.198 0.191 0.2055 0.2095 0.214 0.2015 0.1935 0.2065 0.197 0.18 0.2095 0.2075 0.2045 0.174 0.199 0.192 0.195 0.184 0.207 0.203 0.1995 0.2045 0.1685 0.1865 0.176 0.184 0.207 0.191 0.192 0.1925 0.1875 0.202 0.2025 0.1925 0.199 0.1975 0.202 0.194 0.206 0.195 0.198 0.1955 0.202 0.1985 0.2045 0.184 0.213 0.2355 0.2025 0.189 0.2085 0.197 0.194 0.201 0.1685 0.2095 0.2085 0.2065 0.1815 0.1865 0.2155 0.1925 0.202 0.2075 0.19 0.1965 0.1915 0.1985 0.213 0.208 0.2135 0.213 0.1995 0.212 0.183 0.203 0.19 0.205 0.2115 0.1955 0.171 0.1705 0.1965 0.196 0.2205 0.199 0.19 0.2185 0.1995 0.1835 0.1785 0.178 0.1815 0.1955 0.1985 0.2095 0.211 0.2055 0.1725 0.1805 0.212 0.1995 0.2115 0.2075 0.197 0.1715 0.1995 0.208 0.19 0.1905 0.207 0.186 0.1995 0.182 0.1825 0.1965 0.2055 0.183 0.184 0.174 0.1965 0.1995 0.198 0.198 0.186 0.19 0.2035 0.21 0.198 0.189 0.2 0.2015 0.2005 0.186 0.1935 0.195 0.21 0.216 0.183 0.191 0.185 0.181 0.192 0.1975 0.1955 0.2035 0.192 0.207 0.1915 0.197 0.192 0.1925 0.191 0.198 0.2005 0.182 0.214 0.191 0.2005 0.189 0.1955 0.2085 0.2025 0.197 0.1695 0.1795 0.189 0.1815 0.1805 0.1865 0.216 0.2 0.21 0.1985 0.205 0.1955 0.194 0.1805 0.1975 0.2055 0.197 0.1905 0.2125 0.2145 0.2025 0.198 0.1825 0.2205 0.192 0.19 0.2105 0.2 0.1945 0.2055 0.207 0.193 0.2115 0.212 0.208 0.177 0.1925 0.195 0.1885 0.1775 0.183 0.2125 0.2015 0.197 0.201 0.207 0.199 0.213 0.204 0.1785 0.204 0.188 0.2115 0.198 0.1835 0.21 0.1905 0.2015 ];
% latency change    = 0.00234016
% throughput change = 0.000853337
I am thread 0
I am thread 1
I am thread 2
I am thread 4
I am thread 5
I am thread 3
I am thread 6
I am thread 7
I am thread 8
I am thread 9
I am thread 10
I am thread 11
I am thread 12
I am thread 13
I am thread 14
I am thread 15
1%=================================
% Average latency = 116.526
% Accepted packets = 0.163667 at node 692 (avg = 0.196369)
lat(6) = 116.526;
bins = [ 0 ...999];
freq = [ 0 474 1311 520 58 8 0 0 0 0 0 3132 8170 4182 752 136 18 4 1 0 0 0 0 0 0 0 0 0 0 0 0 0 0 0 0 0 0 0 0 0 0 0 0 0 0 0 0 0 0 0 0 0 0 0 0 0 0 0 0 0 0 0 0 0 0 0 0 0 0 0 0 0 0 0 0 0 0 0 0 0 0 0 0 0 0 0 0 0 0 0 0 0 0 0 0 0 0 0 0 0 0 1734 4484 2397 447 61 6 0 0 1 0 21474 57843 35869 9671 2129 392 89 14 3 0 63560 182158 131209 48223 13444 3306 798 166 45 11 6 1 0 0 0 0 0 0 0 0 0 0 0 0 0 0 0 0 0 0 0 0 0 0 0 0 0 0 0 0 0 0 0 0 0 0 0 0 0 0 0 0 0 0 0 0 0 0 0 0 0 0 0 0 0 0 0 0 0 0 0 0 0 0 0 0 0 0 0 0 0 0 0 0 0 0 0 0 0 0 0 0 0 0 0 0 0 0 0 0 0 0 0 0 0 0 0 0 0 0 0 0 0 0 0 0 0 0 0 0 0 0 0 0 0 0 0 0 0 0 0 0 0 0 0 0 0 0 0 0 0 0 0 0 0 0 0 0 0 0 0 0 0 0 0 0 0 0 0 0 0 0 0 0 0 0 0 0 0 0 0 0 0 0 0 0 0 0 0 0 0 0 0 0 0 0 0 0 0 0 0 0 0 0 0 0 0 0 0 0 0 0 0 0 0 0 0 0 0 0 0 0 0 0 0 0 0 0 0 0 0 0 0 0 0 0 0 0 0 0 0 0 0 0 0 0 0 0 0 0 0 0 0 0 0 0 0 0 0 0 0 0 0 0 0 0 0 0 0 0 0 0 0 0 0 0 0 0 0 0 0 0 0 0 0 0 0 0 0 0 0 0 0 0 0 0 0 0 0 0 0 0 0 0 0 0 0 0 0 0 0 0 0 0 0 0 0 0 0 0 0 0 0 0 0 0 0 0 0 0 0 0 0 0 0 0 0 0 0 0 0 0 0 0 0 0 0 0 0 0 0 0 0 0 0 0 0 0 0 0 0 0 0 0 0 0 0 0 0 0 0 0 0 0 0 0 0 0 0 0 0 0 0 0 0 0 0 0 0 0 0 0 0 0 0 0 0 0 0 0 0 0 0 0 0 0 0 0 0 0 0 0 0 0 0 0 0 0 0 0 0 0 0 0 0 0 0 0 0 0 0 0 0 0 0 0 0 0 0 0 0 0 0 0 0 0 0 0 0 0 0 0 0 0 0 0 0 0 0 0 0 0 0 0 0 0 0 0 0 0 0 0 0 0 0 0 0 0 0 0 0 0 0 0 0 0 0 0 0 0 0 0 0 0 0 0 0 0 0 0 0 0 0 0 0 0 0 0 0 0 0 0 0 0 0 0 0 0 0 0 0 0 0 0 0 0 0 0 0 0 0 0 0 0 0 0 0 0 0 0 0 0 0 0 0 0 0 0 0 0 0 0 0 0 0 0 0 0 0 0 0 0 0 0 0 0 0 0 0 0 0 0 0 0 0 0 0 0 0 0 0 0 0 0 0 0 0 0 0 0 0 0 0 0 0 0 0 0 0 0 0 0 0 0 0 0 0 0 0 0 0 0 0 0 0 0 0 0 0 0 0 0 0 0 0 0 0 0 0 0 0 0 0 0 0 0 0 0 0 0 0 0 0 0 0 0 0 0 0 0 0 0 0 0 0 0 0 0 0 0 0 0 0 0 0 0 0 0 0 0 0 0 0 0 0 0 0 0 0 0 0 0 0 0 0 0 0 0 0 0 0 0 0 0 0 0 0 0 0 0 0 0 0 0 0 0 0 0 0 0 0 0 0 0 0 0 0 0 0 0 0 0 0 0 0 0 0 0 0 0 0 0 0 0 0 0 0 0 0 0 0 0 0 0 0 0 0 0 0 0 0 0 0 0 0 0 0 0 0 0 0 0 0 0 0 0 0 0 0 0 0 0 0 0 0 0 0 0 0 0 0 0 0 0 0 0 0 0 0 0 0 0 0 0 0 0 0 0 0 0 0 0 0 0 0 0 0 0 0 0 0 0 0 0 0 0 0 0 0 0 0 0 0 0 0 0 0 0 0 0 0 0 0 0 0 0 0 0 0 0 0 0 0 0 0 0 0 0 0 0 0 0 0 0 0 0 0 0 0 0 0 0 0 0 0 0 0 0 0 0 0 0 0 0 0 0 0 0 0 0 0 0 0 0 0 0 0 0 0 ];
thru(6,:) = [ 0.195 0.207667 0.201333 0.206667 0.200667 0.200667 0.192667 0.191333 0.194667 0.183667 0.212333 0.202333 0.199667 0.199667 0.198667 0.198 0.173667 0.201667 0.186667 0.206 0.191 0.178667 0.184333 0.190667 0.199 0.204333 0.188667 0.197 0.191 0.188 0.208 0.195333 0.195333 0.208 0.202333 0.195667 0.203333 0.209333 0.185667 0.188 0.195333 0.190333 0.169667 0.195333 0.177667 0.185667 0.218333 0.199333 0.208667 0.186667 0.179667 0.187 0.198 0.183667 0.195 0.201333 0.194667 0.198333 0.186667 0.198 0.204333 0.206667 0.188667 0.187667 0.185333 0.186667 0.198667 0.197667 0.192 0.194333 0.205 0.194333 0.196 0.201 0.190667 0.188333 0.192333 0.194333 0.207667 0.2 0.199333 0.2 0.187333 0.199333 0.21 0.201 0.195333 0.176333 0.203 0.194 0.195333 0.189667 0.205333 0.176333 0.192 0.205667 0.195667 0.202 0.194333 0.192 0.181 0.21 0.221 0.191333 0.197667 0.194667 0.19 0.204 0.199 0.191333 0.199667 0.194 0.192333 0.190667 0.198667 0.196333 0.206667 0.194333 0.184667 0.190667 0.208333 0.187 0.196 0.208 0.209333 0.198333 0.191 0.189333 0.187 0.195 0.195333 0.197333 0.192333 0.185667 0.195667 0.184667 0.190667 0.2 0.201667 0.185333 0.205667 0.208667 0.200667 0.194 0.203333 0.193 0.186667 0.205 0.197 0.197667 0.192667 0.192667 0.203333 0.192333 0.198 0.198333 0.196333 0.203667 0.188 0.203 0.212 0.202667 0.189333 0.179333 0.197333 0.199333 0.212 0.191 0.196667 0.198 0.226667 0.200667 0.208333 0.201667 0.191667 0.185333 0.189333 0.202333 0.188667 0.181333 0.202333 0.192667 0.193 0.203667 0.212 0.176 0.202 0.200333 0.205333 0.188 0.191667 0.180667 0.189667 0.187333 0.182333 0.204333 0.2 0.201333 0.215667 0.176 0.201333 0.203 0.199333 0.187 0.198333 0.203333 0.195 0.191667 0.202333 0.184667 0.195667 0.204333 0.202667 0.192 0.181 0.189333 0.197333 0.199 0.189 0.2 0.200667 0.175667 0.201 0.186333 0.195667 0.205333 0.204 0.178 0.2 0.202 0.197333 0.196333 0.197333 0.198333 0.186667 0.203333 0.209 0.192 0.205 0.192 0.191667 0.201 0.203667 0.203 0.190667 0.193333 0.209667 0.213 0.221333 0.197333 0.204333 0.182333 0.190333 0.180333 0.207667 0.184 0.199 0.205 0.184667 0.198333 0.209 0.191333 0.209333 0.189333 0.217333 0.194667 0.199333 0.197667 0.186333 0.190667 0.186 0.207667 0.215 0.196667 0.204333 0.192333 0.187333 0.192667 0.192333 0.196333 0.226667 0.209 0.189333 0.201333 0.209333 0.197667 0.186667 0.199667 0.211333 0.194333 0.202333 0.185 0.21 0.205 0.202333 0.217333 0.196 0.201667 0.204 0.193667 0.197 0.193 0.194 0.186667 0.193667 0.197667 0.185667 0.196333 0.197 0.184 0.182333 0.199 0.199667 0.199667 0.191667 0.194333 0.188667 0.197333 0.196333 0.212667 0.185667 0.204333 0.200667 0.203 0.200667 0.199 0.205 0.199667 0.196 0.198333 0.178333 0.194 0.2 0.192333 0.191 0.204667 0.199333 0.192667 0.199 0.191333 0.196667 0.206 0.2 0.193333 0.196333 0.199 0.207333 0.202 0.195667 0.184333 0.206 0.193333 0.197667 0.192333 0.197333 0.196667 0.187667 0.204667 0.193667 0.203333 0.192 0.199667 0.201333 0.194333 0.19 0.190667 0.175333 0.197667 0.194667 0.189667 0.193667 0.185333 0.197 0.186667 0.191 0.194667 0.187 0.193333 0.190667 0.207333 0.220333 0.184 0.187 0.197667 0.208667 0.176 0.197333 0.208333 0.187667 0.213333 0.195 0.207333 0.192333 0.2 0.171667 0.186667 0.216333 0.199333 0.189667 0.198667 0.201 0.204 0.194 0.198667 0.205 0.188667 0.185 0.193667 0.193333 0.199667 0.211 0.202 0.19 0.204 0.208333 0.190667 0.186333 0.191667 0.187 0.197 0.200667 0.208 0.199 0.187667 0.205667 0.196333 0.199333 0.193333 0.189 0.185333 0.209667 0.188333 0.195667 0.2 0.179333 0.206 0.195333 0.186667 0.214667 0.207667 0.199667 0.194 0.198667 0.188667 0.191667 0.183667 0.211 0.205 0.191667 0.191333 0.181333 0.189 0.199667 0.180667 0.201 0.190333 0.173667 0.214 0.194333 0.179 0.185667 0.192 0.197667 0.202333 0.204667 0.179333 0.185333 0.189 0.19 0.194 0.199 0.188 0.193667 0.192667 0.193333 0.198667 0.182 0.192 0.179333 0.193333 0.199 0.220333 0.191333 0.201333 0.192333 0.193333 0.192333 0.213333 0.199 0.197 0.198333 0.206 0.2 0.187667 0.203 0.19 0.207667 0.187333 0.206 0.198 0.188667 0.199 0.194667 0.188 0.193 0.200333 0.2 0.200667 0.188667 0.192333 0.192667 0.183667 0.184 0.207667 0.190667 0.198667 0.201 0.203333 0.191333 0.199333 0.171667 0.194333 0.192667 0.195 0.192667 0.191 0.189333 0.196667 0.202 0.199 0.2 0.201 0.193 0.19 0.202 0.200333 0.192333 0.201 0.185667 0.202 0.221 0.192333 0.197 0.205667 0.198333 0.191667 0.211667 0.206333 0.210667 0.190333 0.209333 0.207667 0.211667 0.198333 0.184 0.195667 0.207 0.195333 0.199667 0.189 0.184 0.188 0.208333 0.203333 0.190333 0.170667 0.192 0.202 0.217667 0.193667 0.207 0.194333 0.182 0.183333 0.2 0.195333 0.198333 0.202667 0.217333 0.209 0.207 0.199333 0.196667 0.202333 0.201 0.188667 0.196 0.199 0.206 0.189667 0.184667 0.195 0.189333 0.198667 0.208333 0.194333 0.188667 0.193333 0.214333 0.197667 0.197667 0.228 0.188333 0.193 0.193667 0.208333 0.203333 0.209 0.208 0.201667 0.206333 0.187667 0.186333 0.204667 0.187667 0.176 0.200667 0.188333 0.197 0.188333 0.194333 0.211667 0.195667 0.185667 0.197667 0.199667 0.201667 0.193333 0.202333 0.202667 0.203667 0.188 0.184333 0.199333 0.199333 0.197333 0.214333 0.212 0.206667 0.188333 0.194333 0.195333 0.201667 0.206333 0.200667 0.211333 0.195333 0.209333 0.177 0.205667 0.212333 0.177667 0.198333 0.182 0.202333 0.194 0.187667 0.197 0.204 0.186 0.187 0.208 0.207333 0.195333 0.186 0.193667 0.185 0.222667 0.211667 0.211333 0.204 0.191 0.211333 0.181 0.207333 0.185333 0.209333 0.198 0.199333 0.189667 0.198333 0.196 0.19 0.205333 0.194333 0.195333 0.201667 0.197 0.188667 0.202667 0.205333 0.184667 0.163667 0.195333 0.193333 0.203333 0.191 0.204667 0.185 0.199 0.210667 0.203667 0.199667 0.191667 0.215333 0.204667 0.185333 0.201667 0.203333 0.196 0.187333 0.214333 0.189 0.205667 0.204 0.185667 0.182667 0.192667 0.212333 0.209333 0.195333 0.191333 0.19 0.195 0.205667 0.188333 0.198 0.189333 0.189667 0.180667 0.193667 0.204667 0.202 0.191667 0.176667 0.198333 0.208 0.201 0.205667 0.182 0.207667 0.183 0.205 0.214 0.203 0.204667 0.185667 0.205 0.184 0.194333 0.208 0.194667 0.183 0.189333 0.202667 0.191 0.181333 0.187 0.198667 0.198667 0.197333 0.193333 0.191667 0.184333 0.213333 0.194 0.181 0.193 0.193333 0.186333 0.186 0.204333 0.197667 0.196 0.201 0.199333 0.196333 0.201333 0.186333 0.197667 0.180667 0.189 0.192667 0.188 0.195333 0.208 0.192667 0.196667 0.197667 0.218 0.198333 0.207 0.207333 0.201333 0.202 0.192 0.208667 0.206 0.198 0.187 0.198 0.199667 0.203 0.203667 0.191333 0.184667 0.212333 0.184333 0.183 0.184333 0.192667 0.188 0.182667 0.197333 0.209333 0.204 0.204333 0.188 0.205667 0.187 0.200667 0.200333 0.175333 0.185 0.184667 0.184333 0.181 0.172667 0.200333 0.199333 0.187333 0.199 0.196 0.207667 0.195667 0.192333 0.193667 0.198667 0.215333 0.196667 0.204333 0.203333 0.192333 0.178667 0.201667 0.208333 0.199 0.181667 0.198333 0.188 0.193667 0.191 0.203333 0.203 0.197667 0.194 0.174667 0.196333 0.181 0.184 0.195667 0.187333 0.191667 0.187 0.184667 0.205333 0.200333 0.188333 0.195333 0.2 0.199667 0.191667 0.207667 0.194333 0.198667 0.199 0.195333 0.203333 0.209333 0.189 0.211333 0.215667 0.199667 0.197 0.212333 0.205 0.194667 0.198667 0.166667 0.196 0.199667 0.206333 0.183333 0.194333 0.210333 0.188333 0.201 0.214 0.191667 0.192667 0.199333 0.196 0.208333 0.204 0.208333 0.208333 0.206667 0.215333 0.190333 0.211 0.191 0.199667 0.209667 0.200667 0.18 0.181667 0.197667 0.201667 0.22 0.206333 0.19 0.212667 0.199 0.197333 0.190333 0.177667 0.185333 0.188667 0.188667 0.200667 0.208 0.204 0.183667 0.182333 0.209333 0.196667 0.200667 0.205667 0.194 0.177 0.201 0.202667 0.185667 0.192667 0.204333 0.194667 0.203 0.186333 0.192667 0.195 0.203 0.18 0.197 0.184667 0.198667 0.192333 0.196333 0.193 0.19 0.188333 0.200667 0.211 0.198333 0.187 0.196333 0.203333 0.205667 0.184 0.200333 0.186 0.201667 0.213 0.177333 0.187667 0.202 0.177667 0.194333 0.189333 0.190667 0.203 0.193667 0.205333 0.196 0.183667 0.191333 0.197333 0.190667 0.200333 0.195333 0.186667 0.21 0.189333 0.196667 0.19 0.192667 0.205667 0.196 0.196667 0.178333 0.191333 0.194667 0.177667 0.181333 0.184 0.204667 0.205667 0.205333 0.198 0.196333 0.186667 0.188667 0.187333 0.206 0.202667 0.194667 0.189 0.211 0.211333 0.187667 0.194667 0.192 0.21 0.196333 0.200333 0.205 0.192 0.196667 0.196667 0.204667 0.192 0.205667 0.198 0.207 0.182333 0.195 0.190667 0.192 0.179667 0.193667 0.200333 0.203 0.194667 0.199333 0.207 0.205333 0.201333 0.194 0.175667 0.201667 0.197333 0.205667 0.186667 0.184 0.207 0.195 0.212 ];
% latency change    = 0.000783792
% throughput change = 0.000268447
% Draining all recorded packets ...
% Draining remaining packets ...
Time taken is 6000 cycles
====== Traffic class 0 ======
Overall average latency = 116.526 (1 samples)
Overall average accepted rate = 0.196369 (1 samples)
Overall min accepted rate = 0.163667 (1 samples)
Average hops = 3.69054 (1198491 samples)
Total run time 31.9816
LOL 1280992 1290833
node0 1148
