BEGIN Configuration File
Name: dragonflyconfig
// Dragonfly
//
// Flow co1	ntrol
//

// Total number of VCs must match the above assignments
num_vcs     = 3;

vc_buf_size = 256;

wait_for_tail_credit = 0;

//
// Router architecture
//
vc_allocator = islip; 
sw_allocator = islip;
alloc_iters  = 4;

credit_delay   = 0;
routing_delay  = 0;
vc_alloc_delay = 0;
sw_alloc_delay = 0;
st_final_delay = 0;

input_speedup     = 1;
output_speedup    = 1;
internal_speedup  = 1.7;


//iq_routing_delay = 0;
//row_routing_delay = 0;
//subsw_alloc_delay = 0;
//out_alloc_delay = 0;

warmup_periods = 3;
sim_count          = 1;

sample_period  = 1000;  


routing_function = min;

priority = none;
traffic       = uniform ;

injection_rate =0.2;
const_flits_per_packet = 1;

topology = dragonflynew;

k  = 4;
n  = 1;


END Configuration File
 Dragonfly 
 p = 4 n = 1
 each switch - total radix =  15
 # of switches = 264
 # of channels = 2904
 # of sources = 1056
 # of nodes ( size of network ) = 1056
 # of groups (_g) = 33
 # of routers per group (_a) = 8
Done links
Unable to open flit watch file, continuing with simulation
0%=================================
% Average latency = 116.127
% Accepted packets = 0.133 at node 291 (avg = 0.177191)
lat(1) = 116.127;
bins = [ 0 ...999];
freq = [ 0 0 724 61 3 0 0 0 0 0 0 0 4668 866 126 21 1 0 0 0 0 0 0 0 0 0 0 0 0 0 0 0 0 0 0 0 0 0 0 0 0 0 0 0 0 0 0 0 0 0 0 0 0 0 0 0 0 0 0 0 0 0 0 0 0 0 0 0 0 0 0 0 0 0 0 0 0 0 0 0 0 0 0 0 0 0 0 0 0 0 0 0 0 0 0 0 0 0 0 0 0 0 2375 457 57 6 0 0 0 0 0 0 29168 8573 1628 258 22 3 2 0 0 0 91179 35824 8957 1755 306 64 10 0 0 0 0 0 0 0 0 0 0 0 0 0 0 0 0 0 0 0 0 0 0 0 0 0 0 0 0 0 0 0 0 0 0 0 0 0 0 0 0 0 0 0 0 0 0 0 0 0 0 0 0 0 0 0 0 0 0 0 0 0 0 0 0 0 0 0 0 0 0 0 0 0 0 0 0 0 0 0 0 0 0 0 0 0 0 0 0 0 0 0 0 0 0 0 0 0 0 0 0 0 0 0 0 0 0 0 0 0 0 0 0 0 0 0 0 0 0 0 0 0 0 0 0 0 0 0 0 0 0 0 0 0 0 0 0 0 0 0 0 0 0 0 0 0 0 0 0 0 0 0 0 0 0 0 0 0 0 0 0 0 0 0 0 0 0 0 0 0 0 0 0 0 0 0 0 0 0 0 0 0 0 0 0 0 0 0 0 0 0 0 0 0 0 0 0 0 0 0 0 0 0 0 0 0 0 0 0 0 0 0 0 0 0 0 0 0 0 0 0 0 0 0 0 0 0 0 0 0 0 0 0 0 0 0 0 0 0 0 0 0 0 0 0 0 0 0 0 0 0 0 0 0 0 0 0 0 0 0 0 0 0 0 0 0 0 0 0 0 0 0 0 0 0 0 0 0 0 0 0 0 0 0 0 0 0 0 0 0 0 0 0 0 0 0 0 0 0 0 0 0 0 0 0 0 0 0 0 0 0 0 0 0 0 0 0 0 0 0 0 0 0 0 0 0 0 0 0 0 0 0 0 0 0 0 0 0 0 0 0 0 0 0 0 0 0 0 0 0 0 0 0 0 0 0 0 0 0 0 0 0 0 0 0 0 0 0 0 0 0 0 0 0 0 0 0 0 0 0 0 0 0 0 0 0 0 0 0 0 0 0 0 0 0 0 0 0 0 0 0 0 0 0 0 0 0 0 0 0 0 0 0 0 0 0 0 0 0 0 0 0 0 0 0 0 0 0 0 0 0 0 0 0 0 0 0 0 0 0 0 0 0 0 0 0 0 0 0 0 0 0 0 0 0 0 0 0 0 0 0 0 0 0 0 0 0 0 0 0 0 0 0 0 0 0 0 0 0 0 0 0 0 0 0 0 0 0 0 0 0 0 0 0 0 0 0 0 0 0 0 0 0 0 0 0 0 0 0 0 0 0 0 0 0 0 0 0 0 0 0 0 0 0 0 0 0 0 0 0 0 0 0 0 0 0 0 0 0 0 0 0 0 0 0 0 0 0 0 0 0 0 0 0 0 0 0 0 0 0 0 0 0 0 0 0 0 0 0 0 0 0 0 0 0 0 0 0 0 0 0 0 0 0 0 0 0 0 0 0 0 0 0 0 0 0 0 0 0 0 0 0 0 0 0 0 0 0 0 0 0 0 0 0 0 0 0 0 0 0 0 0 0 0 0 0 0 0 0 0 0 0 0 0 0 0 0 0 0 0 0 0 0 0 0 0 0 0 0 0 0 0 0 0 0 0 0 0 0 0 0 0 0 0 0 0 0 0 0 0 0 0 0 0 0 0 0 0 0 0 0 0 0 0 0 0 0 0 0 0 0 0 0 0 0 0 0 0 0 0 0 0 0 0 0 0 0 0 0 0 0 0 0 0 0 0 0 0 0 0 0 0 0 0 0 0 0 0 0 0 0 0 0 0 0 0 0 0 0 0 0 0 0 0 0 0 0 0 0 0 0 0 0 0 0 0 0 0 0 0 0 0 0 0 0 0 0 0 0 0 0 0 0 0 0 0 0 0 0 0 0 0 0 0 0 0 0 0 0 0 0 0 0 0 0 0 0 0 0 0 0 0 0 0 0 0 0 0 0 0 0 0 0 0 0 0 0 0 0 0 0 0 0 0 0 0 0 0 0 0 0 0 0 0 0 0 0 0 0 0 0 0 0 0 0 0 0 0 0 0 0 0 0 0 0 0 0 0 0 0 0 0 0 0 0 0 0 0 0 0 0 0 ];
thru(1,:) = [ 0.176 0.169 0.154 0.171 0.167 0.174 0.179 0.188 0.175 0.185 0.177 0.159 0.159 0.175 0.198 0.158 0.172 0.166 0.178 0.202 0.19 0.186 0.206 0.187 0.191 0.163 0.197 0.174 0.17 0.163 0.173 0.152 0.193 0.173 0.177 0.182 0.169 0.153 0.165 0.168 0.163 0.182 0.192 0.18 0.156 0.17 0.171 0.173 0.193 0.179 0.176 0.192 0.18 0.178 0.178 0.151 0.183 0.159 0.181 0.17 0.186 0.181 0.198 0.191 0.196 0.184 0.159 0.161 0.168 0.173 0.198 0.165 0.171 0.16 0.174 0.172 0.166 0.157 0.19 0.164 0.18 0.177 0.165 0.18 0.166 0.166 0.185 0.189 0.166 0.196 0.196 0.17 0.201 0.171 0.178 0.18 0.214 0.179 0.176 0.164 0.161 0.184 0.166 0.16 0.193 0.18 0.175 0.175 0.182 0.182 0.161 0.148 0.183 0.178 0.158 0.164 0.184 0.178 0.212 0.177 0.189 0.192 0.191 0.174 0.149 0.141 0.194 0.182 0.185 0.18 0.16 0.174 0.174 0.181 0.165 0.201 0.187 0.175 0.165 0.186 0.172 0.174 0.145 0.168 0.198 0.17 0.208 0.184 0.187 0.171 0.138 0.17 0.186 0.21 0.172 0.166 0.164 0.18 0.19 0.174 0.162 0.173 0.167 0.179 0.167 0.192 0.184 0.168 0.182 0.172 0.142 0.161 0.179 0.178 0.195 0.176 0.187 0.184 0.183 0.188 0.169 0.182 0.194 0.189 0.163 0.182 0.2 0.181 0.172 0.177 0.188 0.179 0.179 0.183 0.171 0.169 0.177 0.16 0.169 0.148 0.171 0.18 0.164 0.184 0.191 0.172 0.168 0.163 0.221 0.222 0.19 0.155 0.153 0.181 0.185 0.198 0.164 0.184 0.161 0.197 0.184 0.19 0.177 0.157 0.189 0.177 0.184 0.155 0.175 0.163 0.17 0.177 0.184 0.177 0.178 0.176 0.167 0.184 0.152 0.178 0.173 0.178 0.185 0.177 0.177 0.173 0.177 0.172 0.201 0.187 0.167 0.2 0.191 0.18 0.192 0.18 0.192 0.164 0.159 0.196 0.182 0.194 0.195 0.162 0.16 0.163 0.163 0.182 0.174 0.18 0.151 0.186 0.154 0.156 0.185 0.184 0.149 0.178 0.201 0.179 0.195 0.178 0.162 0.156 0.18 0.173 0.167 0.202 0.154 0.188 0.167 0.133 0.174 0.188 0.179 0.18 0.169 0.172 0.165 0.182 0.211 0.175 0.177 0.185 0.177 0.187 0.16 0.158 0.178 0.177 0.175 0.186 0.16 0.193 0.182 0.18 0.172 0.187 0.176 0.18 0.177 0.178 0.167 0.176 0.186 0.178 0.166 0.17 0.165 0.148 0.182 0.182 0.181 0.172 0.188 0.157 0.165 0.181 0.159 0.175 0.177 0.187 0.19 0.186 0.152 0.191 0.182 0.168 0.202 0.192 0.162 0.194 0.176 0.198 0.177 0.169 0.19 0.173 0.171 0.169 0.179 0.177 0.186 0.185 0.193 0.183 0.176 0.193 0.187 0.17 0.184 0.184 0.175 0.193 0.173 0.168 0.17 0.17 0.193 0.177 0.164 0.156 0.173 0.186 0.185 0.183 0.165 0.186 0.175 0.163 0.178 0.195 0.195 0.183 0.161 0.194 0.19 0.181 0.178 0.177 0.179 0.186 0.186 0.178 0.186 0.186 0.183 0.165 0.169 0.181 0.175 0.164 0.165 0.168 0.192 0.17 0.185 0.174 0.168 0.174 0.185 0.197 0.172 0.178 0.16 0.194 0.166 0.178 0.206 0.189 0.187 0.15 0.182 0.165 0.186 0.193 0.171 0.153 0.187 0.171 0.174 0.155 0.176 0.177 0.158 0.181 0.159 0.196 0.209 0.176 0.179 0.165 0.181 0.176 0.199 0.147 0.176 0.182 0.186 0.172 0.164 0.18 0.179 0.152 0.18 0.186 0.175 0.179 0.177 0.156 0.198 0.181 0.184 0.174 0.148 0.172 0.175 0.192 0.165 0.191 0.186 0.205 0.174 0.174 0.161 0.17 0.188 0.184 0.165 0.194 0.176 0.188 0.165 0.179 0.194 0.179 0.193 0.206 0.187 0.191 0.167 0.176 0.174 0.183 0.154 0.153 0.164 0.175 0.19 0.178 0.2 0.17 0.163 0.169 0.151 0.15 0.159 0.176 0.152 0.181 0.193 0.185 0.178 0.161 0.155 0.177 0.183 0.19 0.172 0.166 0.164 0.164 0.183 0.169 0.168 0.15 0.172 0.18 0.159 0.193 0.187 0.197 0.182 0.173 0.173 0.184 0.164 0.165 0.19 0.181 0.184 0.163 0.172 0.186 0.167 0.186 0.191 0.189 0.169 0.187 0.195 0.166 0.171 0.183 0.176 0.193 0.181 0.174 0.174 0.188 0.187 0.168 0.172 0.174 0.189 0.181 0.195 0.176 0.196 0.15 0.194 0.184 0.188 0.184 0.171 0.166 0.176 0.156 0.19 0.176 0.174 0.195 0.176 0.171 0.199 0.174 0.171 0.187 0.157 0.185 0.185 0.181 0.191 0.172 0.183 0.172 0.159 0.183 0.173 0.189 0.183 0.164 0.167 0.185 0.183 0.182 0.17 0.182 0.176 0.213 0.18 0.196 0.173 0.172 0.142 0.184 0.186 0.188 0.167 0.187 0.153 0.175 0.179 0.21 0.172 0.184 0.169 0.181 0.156 0.187 0.155 0.155 0.177 0.188 0.168 0.164 0.164 0.182 0.192 0.158 0.161 0.182 0.184 0.158 0.178 0.184 0.188 0.18 0.189 0.177 0.171 0.183 0.197 0.176 0.178 0.176 0.162 0.182 0.179 0.197 0.187 0.146 0.172 0.185 0.147 0.181 0.18 0.167 0.179 0.187 0.195 0.164 0.166 0.177 0.171 0.196 0.166 0.158 0.188 0.202 0.165 0.171 0.195 0.184 0.17 0.171 0.193 0.204 0.173 0.171 0.198 0.164 0.202 0.186 0.175 0.203 0.178 0.171 0.179 0.176 0.166 0.163 0.189 0.172 0.177 0.165 0.168 0.171 0.18 0.174 0.174 0.158 0.167 0.164 0.157 0.182 0.196 0.179 0.181 0.181 0.173 0.172 0.188 0.162 0.183 0.193 0.17 0.166 0.215 0.19 0.177 0.155 0.165 0.183 0.184 0.164 0.179 0.17 0.17 0.171 0.197 0.167 0.191 0.165 0.171 0.193 0.161 0.173 0.176 0.174 0.167 0.154 0.184 0.199 0.172 0.206 0.166 0.17 0.171 0.192 0.184 0.186 0.168 0.162 0.173 0.176 0.187 0.188 0.165 0.167 0.165 0.156 0.181 0.184 0.183 0.174 0.19 0.195 0.163 0.173 0.184 0.154 0.19 0.179 0.175 0.181 0.165 0.17 0.208 0.182 0.184 0.162 0.18 0.188 0.164 0.18 0.191 0.182 0.177 0.181 0.173 0.182 0.169 0.186 0.166 0.177 0.19 0.174 0.157 0.161 0.196 0.195 0.193 0.18 0.174 0.155 0.164 0.157 0.146 0.189 0.18 0.197 0.185 0.196 0.165 0.172 0.179 0.185 0.167 0.183 0.188 0.188 0.189 0.153 0.17 0.183 0.17 0.177 0.194 0.162 0.185 0.188 0.165 0.177 0.181 0.179 0.212 0.176 0.182 0.186 0.192 0.201 0.177 0.163 0.193 0.172 0.179 0.169 0.152 0.195 0.174 0.186 0.174 0.189 0.172 0.18 0.167 0.172 0.172 0.171 0.185 0.186 0.191 0.173 0.212 0.161 0.175 0.168 0.2 0.152 0.16 0.183 0.158 0.178 0.164 0.198 0.194 0.173 0.179 0.186 0.145 0.176 0.157 0.197 0.171 0.182 0.167 0.181 0.177 0.174 0.177 0.158 0.195 0.161 0.174 0.197 0.171 0.181 0.174 0.172 0.196 0.205 0.17 0.181 0.167 0.174 0.167 0.178 0.179 0.167 0.176 0.193 0.175 0.168 0.176 0.19 0.163 0.196 0.174 0.181 0.173 0.195 0.183 0.186 0.163 0.168 0.175 0.175 0.198 0.2 0.175 0.196 0.183 0.19 0.166 0.19 0.165 0.203 0.175 0.182 0.167 0.181 0.192 0.174 0.208 0.184 0.177 0.182 0.192 0.193 0.163 0.176 0.187 0.198 0.175 0.172 0.174 0.165 0.174 0.187 0.198 0.166 0.184 0.169 0.213 0.18 0.187 0.157 0.154 0.181 0.189 0.166 0.206 0.174 0.18 0.157 0.178 0.192 0.16 0.19 0.169 0.189 0.167 0.15 0.168 0.159 0.172 0.168 0.171 0.16 0.181 0.171 0.157 0.182 0.182 0.161 0.179 0.184 0.184 0.203 0.181 0.199 0.188 0.179 0.172 0.192 0.181 0.187 0.181 0.17 0.188 0.153 0.172 0.171 0.196 0.174 0.189 0.187 0.165 0.186 0.148 0.161 0.167 0.19 0.151 0.167 0.185 0.198 0.166 0.181 0.182 0.176 0.177 0.183 0.166 0.183 ];
% latency change    = 1
% throughput change = 1
0%=================================
% Average latency = 116.392
% Accepted packets = 0.1585 at node 671 (avg = 0.188663)
lat(2) = 116.392;
bins = [ 0 ...999];
freq = [ 0 0 1457 146 9 1 0 0 0 0 0 0 9140 1747 271 39 2 0 0 0 0 0 0 0 0 0 0 0 0 0 0 0 0 0 0 0 0 0 0 0 0 0 0 0 0 0 0 0 0 0 0 0 0 0 0 0 0 0 0 0 0 0 0 0 0 0 0 0 0 0 0 0 0 0 0 0 0 0 0 0 0 0 0 0 0 0 0 0 0 0 0 0 0 0 0 0 0 0 0 0 0 0 5072 1002 110 14 0 0 0 0 0 0 61999 18387 3571 572 72 10 4 0 0 0 194591 76475 19165 3767 686 123 21 4 0 0 0 0 0 0 0 0 0 0 0 0 0 0 0 0 0 0 0 0 0 0 0 0 0 0 0 0 0 0 0 0 0 0 0 0 0 0 0 0 0 0 0 0 0 0 0 0 0 0 0 0 0 0 0 0 0 0 0 0 0 0 0 0 0 0 0 0 0 0 0 0 0 0 0 0 0 0 0 0 0 0 0 0 0 0 0 0 0 0 0 0 0 0 0 0 0 0 0 0 0 0 0 0 0 0 0 0 0 0 0 0 0 0 0 0 0 0 0 0 0 0 0 0 0 0 0 0 0 0 0 0 0 0 0 0 0 0 0 0 0 0 0 0 0 0 0 0 0 0 0 0 0 0 0 0 0 0 0 0 0 0 0 0 0 0 0 0 0 0 0 0 0 0 0 0 0 0 0 0 0 0 0 0 0 0 0 0 0 0 0 0 0 0 0 0 0 0 0 0 0 0 0 0 0 0 0 0 0 0 0 0 0 0 0 0 0 0 0 0 0 0 0 0 0 0 0 0 0 0 0 0 0 0 0 0 0 0 0 0 0 0 0 0 0 0 0 0 0 0 0 0 0 0 0 0 0 0 0 0 0 0 0 0 0 0 0 0 0 0 0 0 0 0 0 0 0 0 0 0 0 0 0 0 0 0 0 0 0 0 0 0 0 0 0 0 0 0 0 0 0 0 0 0 0 0 0 0 0 0 0 0 0 0 0 0 0 0 0 0 0 0 0 0 0 0 0 0 0 0 0 0 0 0 0 0 0 0 0 0 0 0 0 0 0 0 0 0 0 0 0 0 0 0 0 0 0 0 0 0 0 0 0 0 0 0 0 0 0 0 0 0 0 0 0 0 0 0 0 0 0 0 0 0 0 0 0 0 0 0 0 0 0 0 0 0 0 0 0 0 0 0 0 0 0 0 0 0 0 0 0 0 0 0 0 0 0 0 0 0 0 0 0 0 0 0 0 0 0 0 0 0 0 0 0 0 0 0 0 0 0 0 0 0 0 0 0 0 0 0 0 0 0 0 0 0 0 0 0 0 0 0 0 0 0 0 0 0 0 0 0 0 0 0 0 0 0 0 0 0 0 0 0 0 0 0 0 0 0 0 0 0 0 0 0 0 0 0 0 0 0 0 0 0 0 0 0 0 0 0 0 0 0 0 0 0 0 0 0 0 0 0 0 0 0 0 0 0 0 0 0 0 0 0 0 0 0 0 0 0 0 0 0 0 0 0 0 0 0 0 0 0 0 0 0 0 0 0 0 0 0 0 0 0 0 0 0 0 0 0 0 0 0 0 0 0 0 0 0 0 0 0 0 0 0 0 0 0 0 0 0 0 0 0 0 0 0 0 0 0 0 0 0 0 0 0 0 0 0 0 0 0 0 0 0 0 0 0 0 0 0 0 0 0 0 0 0 0 0 0 0 0 0 0 0 0 0 0 0 0 0 0 0 0 0 0 0 0 0 0 0 0 0 0 0 0 0 0 0 0 0 0 0 0 0 0 0 0 0 0 0 0 0 0 0 0 0 0 0 0 0 0 0 0 0 0 0 0 0 0 0 0 0 0 0 0 0 0 0 0 0 0 0 0 0 0 0 0 0 0 0 0 0 0 0 0 0 0 0 0 0 0 0 0 0 0 0 0 0 0 0 0 0 0 0 0 0 0 0 0 0 0 0 0 0 0 0 0 0 0 0 0 0 0 0 0 0 0 0 0 0 0 0 0 0 0 0 0 0 0 0 0 0 0 0 0 0 0 0 0 0 0 0 0 0 0 0 0 0 0 0 0 0 0 0 0 0 0 0 0 0 0 0 0 0 0 0 0 0 0 0 0 0 0 0 0 0 0 0 0 0 0 0 0 0 0 0 0 0 0 0 0 0 0 0 0 0 0 0 0 0 0 0 0 0 0 0 0 0 0 0 0 0 0 0 0 0 0 0 0 0 0 0 0 0 0 0 0 0 0 ];
thru(2,:) = [ 0.1935 0.1835 0.1825 0.1775 0.1825 0.1835 0.1845 0.189 0.174 0.1915 0.183 0.186 0.177 0.181 0.206 0.194 0.181 0.172 0.183 0.206 0.1875 0.204 0.203 0.1955 0.197 0.162 0.201 0.186 0.1915 0.1745 0.185 0.17 0.2125 0.169 0.1875 0.194 0.195 0.1715 0.177 0.179 0.1715 0.1835 0.1975 0.1815 0.181 0.1905 0.1795 0.1875 0.207 0.188 0.189 0.203 0.185 0.1845 0.179 0.1845 0.198 0.186 0.186 0.1925 0.201 0.1875 0.208 0.1915 0.205 0.2025 0.1795 0.178 0.1945 0.182 0.204 0.179 0.1875 0.172 0.1925 0.191 0.1835 0.1715 0.1945 0.1805 0.1995 0.192 0.1865 0.192 0.1905 0.1775 0.192 0.1905 0.194 0.201 0.2 0.1775 0.2015 0.187 0.184 0.1835 0.2085 0.185 0.185 0.1835 0.173 0.1885 0.177 0.1705 0.205 0.193 0.1985 0.195 0.1865 0.1875 0.179 0.179 0.1895 0.1905 0.1905 0.1675 0.1915 0.182 0.205 0.1865 0.196 0.192 0.1935 0.1825 0.171 0.1775 0.1975 0.1785 0.194 0.1985 0.1785 0.173 0.1915 0.2 0.1845 0.19 0.1915 0.2015 0.1755 0.1985 0.183 0.178 0.173 0.182 0.1975 0.188 0.212 0.19 0.194 0.199 0.1635 0.1835 0.19 0.209 0.2005 0.1935 0.191 0.186 0.191 0.1805 0.1835 0.191 0.1815 0.193 0.194 0.182 0.2005 0.1905 0.1885 0.1835 0.1735 0.168 0.2025 0.1875 0.1975 0.2 0.1905 0.1885 0.1905 0.19 0.1805 0.1895 0.2035 0.1895 0.181 0.201 0.1985 0.1875 0.194 0.181 0.2055 0.183 0.182 0.182 0.1855 0.1825 0.193 0.174 0.179 0.185 0.1955 0.1815 0.185 0.18 0.198 0.176 0.1745 0.1755 0.209 0.205 0.203 0.1805 0.1755 0.1815 0.1835 0.1985 0.182 0.188 0.171 0.196 0.187 0.199 0.19 0.1795 0.1935 0.1925 0.205 0.181 0.185 0.183 0.194 0.176 0.189 0.1875 0.1925 0.186 0.1815 0.196 0.175 0.1815 0.1965 0.1995 0.192 0.181 0.1805 0.183 0.2025 0.1795 0.1965 0.1995 0.1795 0.205 0.199 0.1805 0.206 0.1835 0.1875 0.1865 0.1855 0.19 0.179 0.2015 0.1915 0.1745 0.183 0.174 0.184 0.192 0.1835 0.186 0.174 0.1905 0.1755 0.1775 0.1835 0.185 0.18 0.185 0.2025 0.1875 0.199 0.1925 0.1845 0.1755 0.1765 0.1875 0.179 0.2055 0.184 0.204 0.185 0.162 0.1815 0.188 0.1965 0.1905 0.187 0.1885 0.192 0.1945 0.215 0.194 0.179 0.2055 0.192 0.208 0.1935 0.1755 0.1835 0.1795 0.1785 0.194 0.1775 0.187 0.1965 0.1825 0.185 0.203 0.192 0.1945 0.1715 0.1855 0.188 0.17 0.198 0.188 0.182 0.185 0.18 0.174 0.184 0.1945 0.1825 0.195 0.1915 0.166 0.1775 0.1915 0.183 0.201 0.193 0.204 0.2035 0.186 0.1785 0.2045 0.184 0.192 0.2035 0.193 0.1755 0.2095 0.182 0.19 0.188 0.1765 0.1925 0.1765 0.183 0.1885 0.1875 0.1915 0.186 0.1935 0.202 0.188 0.1925 0.2 0.18 0.184 0.1915 0.2055 0.1925 0.198 0.1945 0.1945 0.192 0.193 0.1995 0.188 0.179 0.175 0.1895 0.2025 0.197 0.1985 0.1825 0.194 0.1865 0.187 0.1885 0.1915 0.189 0.193 0.1765 0.1945 0.202 0.1875 0.1975 0.1865 0.19 0.1915 0.1975 0.1855 0.191 0.1925 0.195 0.1855 0.183 0.1945 0.1925 0.176 0.182 0.2025 0.1995 0.1725 0.1995 0.199 0.1845 0.183 0.1935 0.2005 0.186 0.186 0.184 0.188 0.193 0.21 0.1995 0.1965 0.1915 0.178 0.1795 0.1805 0.202 0.1935 0.1825 0.1815 0.1915 0.1845 0.1845 0.177 0.184 0.1905 0.1715 0.1845 0.1955 0.2115 0.2045 0.1915 0.19 0.1795 0.182 0.1995 0.1965 0.1785 0.1985 0.191 0.191 0.1765 0.184 0.185 0.2005 0.177 0.193 0.192 0.191 0.177 0.189 0.1725 0.1955 0.18 0.1835 0.183 0.1815 0.192 0.1855 0.2025 0.1885 0.1865 0.1825 0.204 0.1855 0.1865 0.1765 0.18 0.1825 0.1895 0.182 0.1795 0.1825 0.201 0.1885 0.183 0.1975 0.1965 0.1895 0.1985 0.1995 0.193 0.196 0.176 0.1905 0.1945 0.179 0.186 0.1855 0.1845 0.202 0.193 0.209 0.1775 0.1705 0.182 0.1715 0.173 0.1865 0.1965 0.1755 0.1845 0.1865 0.1995 0.1875 0.1905 0.1825 0.1765 0.197 0.199 0.1885 0.184 0.193 0.19 0.197 0.1915 0.1735 0.182 0.186 0.1925 0.174 0.1975 0.196 0.1915 0.1945 0.1995 0.187 0.186 0.1795 0.1825 0.179 0.185 0.194 0.1855 0.1815 0.192 0.1915 0.1935 0.1825 0.1975 0.1765 0.1965 0.193 0.1955 0.197 0.1925 0.199 0.2115 0.1845 0.185 0.1905 0.194 0.1985 0.189 0.182 0.192 0.2 0.1815 0.1895 0.187 0.1985 0.171 0.196 0.1935 0.1825 0.188 0.1815 0.1845 0.1745 0.182 0.1985 0.1965 0.1805 0.1945 0.1825 0.1875 0.216 0.189 0.1725 0.189 0.186 0.2 0.183 0.183 0.1835 0.177 0.196 0.188 0.184 0.194 0.1905 0.207 0.1845 0.191 0.1825 0.1965 0.188 0.1895 0.19 0.196 0.1945 0.2135 0.186 0.1945 0.195 0.179 0.177 0.189 0.19 0.196 0.1875 0.187 0.186 0.1905 0.1865 0.202 0.189 0.2045 0.1765 0.1995 0.1825 0.1975 0.174 0.1775 0.1995 0.2045 0.1795 0.202 0.1725 0.195 0.199 0.175 0.192 0.1925 0.183 0.1725 0.1795 0.206 0.196 0.1895 0.1845 0.177 0.1865 0.198 0.1985 0.2005 0.1865 0.1845 0.174 0.2 0.192 0.2055 0.1875 0.1585 0.189 0.192 0.183 0.1845 0.195 0.1975 0.1845 0.1965 0.1965 0.166 0.18 0.1925 0.1915 0.2 0.1855 0.1815 0.192 0.192 0.1865 0.1865 0.2105 0.1855 0.168 0.178 0.201 0.2015 0.178 0.183 0.194 0.1765 0.2045 0.1935 0.186 0.205 0.197 0.1745 0.1945 0.191 0.1925 0.1665 0.2015 0.1865 0.2015 0.179 0.1825 0.1875 0.1995 0.1845 0.177 0.1665 0.184 0.187 0.1835 0.184 0.206 0.1775 0.194 0.184 0.1945 0.1845 0.198 0.193 0.1975 0.2025 0.1895 0.1835 0.1965 0.186 0.19 0.1735 0.175 0.203 0.1805 0.1845 0.184 0.1725 0.1935 0.175 0.189 0.1885 0.186 0.184 0.184 0.186 0.187 0.193 0.1925 0.208 0.1875 0.1665 0.186 0.2015 0.1975 0.202 0.1875 0.1935 0.1915 0.205 0.1875 0.1895 0.183 0.1865 0.1885 0.1895 0.1935 0.187 0.179 0.184 0.2 0.1675 0.187 0.189 0.1975 0.1825 0.2035 0.1925 0.186 0.193 0.1975 0.1775 0.205 0.2 0.1855 0.179 0.186 0.1855 0.2035 0.188 0.1895 0.178 0.1975 0.203 0.1705 0.1925 0.19 0.201 0.194 0.189 0.192 0.1935 0.173 0.195 0.169 0.1815 0.194 0.1875 0.1725 0.1745 0.189 0.195 0.2085 0.2025 0.194 0.177 0.187 0.1805 0.1685 0.194 0.198 0.2105 0.1855 0.193 0.179 0.192 0.1955 0.1895 0.176 0.199 0.1855 0.196 0.1895 0.1675 0.1775 0.182 0.179 0.1905 0.19 0.1805 0.1855 0.1785 0.188 0.188 0.1905 0.185 0.2 0.192 0.193 0.1945 0.195 0.206 0.1835 0.1945 0.188 0.183 0.187 0.1825 0.178 0.195 0.191 0.204 0.1805 0.2015 0.199 0.205 0.1955 0.188 0.1905 0.1935 0.1925 0.1905 0.198 0.194 0.202 0.192 0.2085 0.183 0.196 0.1825 0.1665 0.185 0.181 0.1895 0.177 0.208 0.2 0.195 0.1895 0.192 0.172 0.1815 0.184 0.191 0.1905 0.1985 0.1895 0.183 0.176 0.184 0.186 0.186 0.1905 0.1855 0.1865 0.1905 0.178 0.192 0.1865 0.189 0.202 0.2035 0.1755 0.1995 0.1825 0.187 0.186 0.199 0.19 0.1705 0.1995 0.1895 0.187 0.19 0.186 0.2025 0.184 0.2 0.188 0.1815 0.1845 0.1955 0.1975 0.1955 0.1815 0.1845 0.184 0.1775 0.1835 0.2035 0.1935 0.202 0.1825 0.198 0.1825 0.191 0.1785 0.194 0.1895 0.188 0.173 0.1805 0.2015 0.1865 0.2015 0.198 0.192 0.191 0.1915 0.189 0.173 0.188 0.177 0.201 0.1715 0.191 0.1755 0.1675 0.193 0.2 0.214 0.181 0.1805 0.1935 0.209 0.179 0.202 0.1885 0.177 0.1885 0.177 0.1765 0.195 0.195 0.188 0.1835 0.185 0.19 0.1675 0.195 0.183 0.191 0.189 0.1785 0.1865 0.181 0.177 0.1835 0.181 0.1855 0.186 0.1835 0.183 0.1895 0.1985 0.18 0.1965 0.192 0.194 0.1945 0.192 0.1965 0.19 0.1915 0.1875 0.197 0.185 0.201 0.185 0.197 0.205 0.1815 0.1825 0.184 0.1955 0.2005 0.1915 0.1765 0.1815 0.1905 0.1835 0.195 0.1915 0.203 0.1685 0.1705 0.197 0.199 0.172 0.1855 0.194 0.1975 0.1915 0.191 0.193 0.196 ];
% latency change    = 0.00227498
% throughput change = 0.0608071
0%=================================
% Average latency = 116.499
% Accepted packets = 0.165667 at node 671 (avg = 0.192441)
lat(3) = 116.499;
bins = [ 0 ...999];
freq = [ 0 0 2186 216 16 1 0 0 0 0 0 0 13512 2671 392 50 4 0 0 0 0 0 0 0 0 0 0 0 0 0 0 0 0 0 0 0 0 0 0 0 0 0 0 0 0 0 0 0 0 0 0 0 0 0 0 0 0 0 0 0 0 0 0 0 0 0 0 0 0 0 0 0 0 0 0 0 0 0 0 0 0 0 0 0 0 0 0 0 0 0 0 0 0 0 0 0 0 0 0 0 0 0 7679 1540 181 23 2 0 0 0 0 0 94559 28282 5479 856 117 19 4 0 0 0 297876 117645 29221 5827 1078 180 34 4 0 0 0 0 0 0 0 0 0 0 0 0 0 0 0 0 0 0 0 0 0 0 0 0 0 0 0 0 0 0 0 0 0 0 0 0 0 0 0 0 0 0 0 0 0 0 0 0 0 0 0 0 0 0 0 0 0 0 0 0 0 0 0 0 0 0 0 0 0 0 0 0 0 0 0 0 0 0 0 0 0 0 0 0 0 0 0 0 0 0 0 0 0 0 0 0 0 0 0 0 0 0 0 0 0 0 0 0 0 0 0 0 0 0 0 0 0 0 0 0 0 0 0 0 0 0 0 0 0 0 0 0 0 0 0 0 0 0 0 0 0 0 0 0 0 0 0 0 0 0 0 0 0 0 0 0 0 0 0 0 0 0 0 0 0 0 0 0 0 0 0 0 0 0 0 0 0 0 0 0 0 0 0 0 0 0 0 0 0 0 0 0 0 0 0 0 0 0 0 0 0 0 0 0 0 0 0 0 0 0 0 0 0 0 0 0 0 0 0 0 0 0 0 0 0 0 0 0 0 0 0 0 0 0 0 0 0 0 0 0 0 0 0 0 0 0 0 0 0 0 0 0 0 0 0 0 0 0 0 0 0 0 0 0 0 0 0 0 0 0 0 0 0 0 0 0 0 0 0 0 0 0 0 0 0 0 0 0 0 0 0 0 0 0 0 0 0 0 0 0 0 0 0 0 0 0 0 0 0 0 0 0 0 0 0 0 0 0 0 0 0 0 0 0 0 0 0 0 0 0 0 0 0 0 0 0 0 0 0 0 0 0 0 0 0 0 0 0 0 0 0 0 0 0 0 0 0 0 0 0 0 0 0 0 0 0 0 0 0 0 0 0 0 0 0 0 0 0 0 0 0 0 0 0 0 0 0 0 0 0 0 0 0 0 0 0 0 0 0 0 0 0 0 0 0 0 0 0 0 0 0 0 0 0 0 0 0 0 0 0 0 0 0 0 0 0 0 0 0 0 0 0 0 0 0 0 0 0 0 0 0 0 0 0 0 0 0 0 0 0 0 0 0 0 0 0 0 0 0 0 0 0 0 0 0 0 0 0 0 0 0 0 0 0 0 0 0 0 0 0 0 0 0 0 0 0 0 0 0 0 0 0 0 0 0 0 0 0 0 0 0 0 0 0 0 0 0 0 0 0 0 0 0 0 0 0 0 0 0 0 0 0 0 0 0 0 0 0 0 0 0 0 0 0 0 0 0 0 0 0 0 0 0 0 0 0 0 0 0 0 0 0 0 0 0 0 0 0 0 0 0 0 0 0 0 0 0 0 0 0 0 0 0 0 0 0 0 0 0 0 0 0 0 0 0 0 0 0 0 0 0 0 0 0 0 0 0 0 0 0 0 0 0 0 0 0 0 0 0 0 0 0 0 0 0 0 0 0 0 0 0 0 0 0 0 0 0 0 0 0 0 0 0 0 0 0 0 0 0 0 0 0 0 0 0 0 0 0 0 0 0 0 0 0 0 0 0 0 0 0 0 0 0 0 0 0 0 0 0 0 0 0 0 0 0 0 0 0 0 0 0 0 0 0 0 0 0 0 0 0 0 0 0 0 0 0 0 0 0 0 0 0 0 0 0 0 0 0 0 0 0 0 0 0 0 0 0 0 0 0 0 0 0 0 0 0 0 0 0 0 0 0 0 0 0 0 0 0 0 0 0 0 0 0 0 0 0 0 0 0 0 0 0 0 0 0 0 0 0 0 0 0 0 0 0 0 0 0 0 0 0 0 0 0 0 0 0 0 0 0 0 0 0 0 0 0 0 0 0 0 0 0 0 0 0 0 0 0 0 0 0 0 0 0 0 0 0 0 0 0 0 0 0 0 0 0 0 0 0 0 0 0 0 0 0 0 0 0 0 0 0 0 0 0 0 0 0 0 0 0 0 0 0 0 0 0 0 0 0 0 0 0 0 0 0 0 0 0 0 0 0 0 0 0 0 0 0 0 0 0 ];
thru(3,:) = [ 0.189 0.196 0.191667 0.176 0.186 0.191 0.193667 0.199667 0.182667 0.196 0.191667 0.191 0.179333 0.190333 0.213333 0.193 0.19 0.183 0.185333 0.204667 0.192667 0.199 0.202667 0.2 0.191 0.172333 0.199333 0.196 0.194333 0.187 0.187333 0.182333 0.207 0.186333 0.193667 0.195667 0.199 0.182333 0.187333 0.189667 0.183333 0.186 0.196667 0.194333 0.190667 0.191667 0.184 0.194333 0.202333 0.192667 0.196333 0.207333 0.185333 0.184333 0.183 0.194 0.194 0.186 0.188 0.191667 0.204333 0.191 0.208333 0.187333 0.202 0.192333 0.181333 0.184667 0.204333 0.191 0.202 0.185 0.196333 0.191 0.194667 0.197 0.194 0.184333 0.195 0.188 0.197333 0.187333 0.192667 0.200667 0.190333 0.178 0.185 0.19 0.2 0.200667 0.203667 0.186 0.201667 0.197 0.183333 0.186 0.210667 0.181 0.191 0.185 0.182333 0.190667 0.194333 0.186667 0.204667 0.195667 0.201 0.207667 0.19 0.192333 0.178 0.181 0.198 0.202 0.189667 0.176667 0.193333 0.191 0.213 0.195333 0.201333 0.201333 0.201 0.195333 0.182 0.199 0.197 0.188 0.196 0.198 0.187 0.184667 0.194 0.203 0.193333 0.192 0.194667 0.200333 0.188333 0.194667 0.188333 0.183667 0.176333 0.188667 0.196667 0.201667 0.209 0.194667 0.202 0.201667 0.179667 0.186 0.192333 0.204667 0.204667 0.191 0.191667 0.192 0.191667 0.181333 0.196333 0.198 0.185 0.197 0.198333 0.184667 0.208 0.189333 0.195667 0.191 0.173 0.182 0.202333 0.183667 0.193667 0.198 0.197667 0.192 0.191 0.179667 0.189667 0.193333 0.205333 0.188 0.183 0.203 0.197667 0.189 0.181 0.187333 0.204 0.183667 0.186333 0.185667 0.19 0.189 0.192 0.176333 0.183 0.188333 0.199333 0.187667 0.190333 0.190333 0.195667 0.179667 0.189667 0.181667 0.209667 0.196333 0.195333 0.183 0.188 0.187667 0.188 0.193 0.199667 0.200333 0.180667 0.196333 0.187667 0.205333 0.193667 0.185333 0.2 0.204 0.197333 0.185667 0.198 0.187667 0.198667 0.178 0.199 0.188333 0.196667 0.186 0.190667 0.191 0.175667 0.186333 0.193667 0.215 0.194667 0.185333 0.186667 0.184333 0.207333 0.189667 0.195333 0.206 0.184333 0.196333 0.200333 0.182 0.204 0.190333 0.189333 0.188667 0.194667 0.195 0.19 0.203667 0.196333 0.185667 0.188333 0.181333 0.183667 0.192333 0.180333 0.192 0.178 0.188333 0.180333 0.177333 0.19 0.195333 0.182333 0.186667 0.201667 0.195 0.195333 0.195667 0.189667 0.182667 0.187 0.204333 0.188333 0.208333 0.186 0.208 0.198667 0.176667 0.184 0.197667 0.216 0.196667 0.182333 0.204333 0.191333 0.188333 0.208667 0.192333 0.186333 0.191333 0.198667 0.211667 0.19 0.177667 0.185667 0.187333 0.191667 0.200667 0.180667 0.196667 0.198 0.179 0.189 0.202667 0.186 0.195333 0.189333 0.189 0.189333 0.186667 0.202667 0.188333 0.189667 0.189 0.188 0.180667 0.185667 0.193667 0.192667 0.199667 0.185 0.172667 0.187 0.201 0.186 0.200667 0.199 0.200667 0.197333 0.188667 0.182333 0.201 0.195 0.199 0.198 0.193333 0.182 0.202 0.189 0.198 0.191 0.183667 0.197667 0.19 0.188 0.191667 0.184333 0.192333 0.191667 0.196333 0.209667 0.191333 0.19 0.202 0.186 0.193 0.190667 0.205333 0.198667 0.193 0.198 0.196667 0.191667 0.193667 0.201 0.192333 0.187333 0.192 0.202 0.208333 0.199333 0.194333 0.188667 0.201667 0.189333 0.185 0.192667 0.199333 0.189333 0.190333 0.188333 0.197333 0.192667 0.186 0.197 0.191333 0.192667 0.193 0.195 0.195667 0.191667 0.197667 0.198 0.191333 0.187 0.197333 0.194667 0.194 0.192667 0.198333 0.201667 0.187 0.207 0.19 0.189 0.183667 0.199333 0.200667 0.186333 0.192333 0.194333 0.191 0.202333 0.210333 0.207667 0.197667 0.202 0.184333 0.193667 0.184333 0.202 0.192667 0.193333 0.185667 0.194 0.183333 0.185333 0.185 0.185667 0.201333 0.176 0.185 0.195 0.203 0.197 0.192333 0.193333 0.182667 0.193333 0.195333 0.196667 0.189333 0.197 0.202 0.189 0.180333 0.197333 0.187333 0.197667 0.180667 0.199333 0.201667 0.191 0.182333 0.197 0.177333 0.194333 0.191667 0.199333 0.189 0.185667 0.196667 0.186333 0.201667 0.186 0.196 0.196667 0.197667 0.185667 0.199333 0.186 0.189333 0.179 0.188 0.185333 0.192667 0.189333 0.2 0.193333 0.199333 0.200667 0.205333 0.188 0.205667 0.191333 0.192333 0.195 0.180333 0.194667 0.202667 0.184 0.201 0.189667 0.188 0.198333 0.211667 0.208333 0.185333 0.181667 0.181667 0.182333 0.188333 0.194667 0.205667 0.178 0.194667 0.190667 0.198667 0.192333 0.191667 0.184 0.178 0.203667 0.196333 0.193333 0.184333 0.191667 0.192667 0.201 0.203 0.175 0.188667 0.193 0.194333 0.179333 0.198 0.2 0.197 0.196 0.200333 0.190667 0.180333 0.184667 0.186667 0.177667 0.192667 0.196 0.181 0.186 0.198333 0.196 0.201667 0.186667 0.202 0.180333 0.196667 0.189667 0.199 0.192667 0.195333 0.205333 0.210333 0.189667 0.194333 0.186 0.192667 0.197667 0.203333 0.188667 0.190333 0.190667 0.184333 0.200333 0.190333 0.196 0.182333 0.204667 0.199 0.187 0.195 0.182667 0.183 0.184667 0.188333 0.206333 0.204667 0.192667 0.191333 0.194 0.190667 0.221 0.198667 0.173667 0.198333 0.197 0.192333 0.188333 0.195667 0.190667 0.182667 0.197667 0.196333 0.183 0.186333 0.192667 0.188667 0.195667 0.188333 0.190667 0.198333 0.187 0.193667 0.194 0.201 0.195667 0.203667 0.200667 0.194667 0.200667 0.190333 0.187667 0.193 0.188333 0.189667 0.192 0.189 0.191 0.191333 0.187667 0.203333 0.198667 0.199333 0.186 0.199333 0.186 0.201333 0.177667 0.183 0.197 0.197333 0.186333 0.208 0.189 0.192333 0.199 0.181333 0.191 0.198 0.186667 0.182333 0.187333 0.198667 0.197333 0.193667 0.189667 0.186333 0.188667 0.197333 0.207 0.203 0.194667 0.194667 0.186333 0.203667 0.188333 0.193667 0.197333 0.165667 0.195333 0.195667 0.185667 0.185667 0.192667 0.205 0.189667 0.201 0.203 0.176 0.186 0.191667 0.194 0.192667 0.193 0.184 0.194333 0.197333 0.187 0.190667 0.208333 0.192667 0.181333 0.185333 0.199333 0.2 0.179333 0.188333 0.195 0.182333 0.208 0.199333 0.191667 0.205 0.191 0.189667 0.203667 0.184333 0.187667 0.181 0.202667 0.191333 0.204667 0.194333 0.182333 0.197333 0.200333 0.189333 0.182 0.180333 0.185 0.18 0.195667 0.198333 0.199333 0.179333 0.201 0.189667 0.193333 0.196 0.190333 0.199333 0.189667 0.201333 0.198 0.196 0.198667 0.192667 0.191 0.182667 0.183333 0.191333 0.188667 0.187333 0.182 0.182333 0.193667 0.185 0.197 0.189 0.204667 0.188333 0.186333 0.192 0.193333 0.190333 0.195667 0.204333 0.191667 0.173667 0.188 0.198333 0.197667 0.199333 0.191333 0.198333 0.184667 0.204333 0.197667 0.195 0.177667 0.191333 0.194667 0.192667 0.188667 0.194 0.198 0.188 0.199667 0.171333 0.194333 0.185 0.199333 0.181 0.199333 0.189667 0.198333 0.197667 0.194667 0.185667 0.194333 0.195667 0.185333 0.184333 0.198667 0.193 0.201667 0.188 0.19 0.182333 0.196 0.211667 0.180333 0.191333 0.196667 0.193333 0.188333 0.186333 0.194333 0.193667 0.181667 0.194667 0.181333 0.184333 0.196333 0.195667 0.183667 0.180333 0.197 0.198333 0.212333 0.199333 0.199 0.176667 0.191 0.183 0.173 0.195333 0.196 0.217 0.185333 0.194667 0.196333 0.199333 0.195667 0.190333 0.175 0.204667 0.189333 0.191333 0.192667 0.182333 0.179333 0.184 0.184 0.188667 0.197 0.188667 0.187667 0.182667 0.184667 0.191 0.189333 0.194667 0.203 0.190667 0.196 0.205333 0.200333 0.204333 0.193 0.197667 0.188 0.193 0.196333 0.200667 0.185333 0.188667 0.193333 0.205 0.181 0.199667 0.205667 0.205667 0.195 0.192 0.190333 0.206 0.189667 0.196667 0.197667 0.198 0.205333 0.193333 0.211667 0.187333 0.197333 0.177333 0.182667 0.189 0.192667 0.186 0.185667 0.202 0.204 0.196 0.198333 0.197 0.184667 0.183667 0.186667 0.193333 0.189333 0.193333 0.198 0.182333 0.185667 0.19 0.193333 0.198 0.188 0.190333 0.193667 0.198333 0.185333 0.195333 0.186333 0.190667 0.199333 0.203 0.175333 0.187667 0.181667 0.192667 0.194333 0.199333 0.187667 0.179667 0.204333 0.194333 0.190333 0.192333 0.182667 0.204 0.195333 0.205667 0.197667 0.195 0.190667 0.195667 0.204 0.203 0.185667 0.192667 0.192333 0.186667 0.188333 0.2 0.190333 0.203667 0.184 0.19 0.193667 0.189 0.178667 0.197333 0.196667 0.189333 0.177333 0.188 0.201 0.183 0.206667 0.201667 0.194 0.186 0.204 0.190667 0.18 0.195333 0.181 0.199333 0.185 0.194667 0.178667 0.183333 0.197333 0.203 0.212 0.182667 0.186667 0.187667 0.201667 0.182667 0.201333 0.195333 0.176 0.188333 0.178333 0.191667 0.192 0.192667 0.194667 0.185333 0.193333 0.193 0.182333 0.193 0.189 0.199333 0.199333 0.185 0.187 0.178667 0.186 0.193667 0.189667 0.181333 0.183333 0.186333 0.192 0.193333 0.198 0.186 0.193 0.196667 0.195333 0.190333 0.196333 0.199333 0.188667 0.192 0.194667 0.202667 0.19 0.196 0.191 0.199333 0.203 0.194 0.193333 0.183333 0.199333 0.196667 0.195333 0.187 0.195333 0.204333 0.194333 0.188667 0.193 0.196 0.179 0.185 0.193 0.209667 0.18 0.192 0.200333 0.199333 0.196 0.192 0.194333 0.195667 ];
% latency change    = 0.000914891
% throughput change = 0.0196316
% Warmed up ...Time used is 3000 cycles
1%=================================
% Average latency = 116.146
% Accepted packets = 0.158 at node 54 (avg = 0.199923)
lat(4) = 116.146;
bins = [ 0 ...999];
freq = [ 0 0 734 70 11 0 0 0 0 0 0 0 4569 868 123 22 2 0 0 0 0 0 0 0 0 0 0 0 0 0 0 0 0 0 0 0 0 0 0 0 0 0 0 0 0 0 0 0 0 0 0 0 0 0 0 0 0 0 0 0 0 0 0 0 0 0 0 0 0 0 0 0 0 0 0 0 0 0 0 0 0 0 0 0 0 0 0 0 0 0 0 0 0 0 0 0 0 0 0 0 0 0 2344 483 61 5 2 0 0 0 0 0 29075 8747 1581 235 46 4 0 0 0 0 90917 35913 8686 1736 272 54 6 1 1 0 0 0 0 0 0 0 0 0 0 0 0 0 0 0 0 0 0 0 0 0 0 0 0 0 0 0 0 0 0 0 0 0 0 0 0 0 0 0 0 0 0 0 0 0 0 0 0 0 0 0 0 0 0 0 0 0 0 0 0 0 0 0 0 0 0 0 0 0 0 0 0 0 0 0 0 0 0 0 0 0 0 0 0 0 0 0 0 0 0 0 0 0 0 0 0 0 0 0 0 0 0 0 0 0 0 0 0 0 0 0 0 0 0 0 0 0 0 0 0 0 0 0 0 0 0 0 0 0 0 0 0 0 0 0 0 0 0 0 0 0 0 0 0 0 0 0 0 0 0 0 0 0 0 0 0 0 0 0 0 0 0 0 0 0 0 0 0 0 0 0 0 0 0 0 0 0 0 0 0 0 0 0 0 0 0 0 0 0 0 0 0 0 0 0 0 0 0 0 0 0 0 0 0 0 0 0 0 0 0 0 0 0 0 0 0 0 0 0 0 0 0 0 0 0 0 0 0 0 0 0 0 0 0 0 0 0 0 0 0 0 0 0 0 0 0 0 0 0 0 0 0 0 0 0 0 0 0 0 0 0 0 0 0 0 0 0 0 0 0 0 0 0 0 0 0 0 0 0 0 0 0 0 0 0 0 0 0 0 0 0 0 0 0 0 0 0 0 0 0 0 0 0 0 0 0 0 0 0 0 0 0 0 0 0 0 0 0 0 0 0 0 0 0 0 0 0 0 0 0 0 0 0 0 0 0 0 0 0 0 0 0 0 0 0 0 0 0 0 0 0 0 0 0 0 0 0 0 0 0 0 0 0 0 0 0 0 0 0 0 0 0 0 0 0 0 0 0 0 0 0 0 0 0 0 0 0 0 0 0 0 0 0 0 0 0 0 0 0 0 0 0 0 0 0 0 0 0 0 0 0 0 0 0 0 0 0 0 0 0 0 0 0 0 0 0 0 0 0 0 0 0 0 0 0 0 0 0 0 0 0 0 0 0 0 0 0 0 0 0 0 0 0 0 0 0 0 0 0 0 0 0 0 0 0 0 0 0 0 0 0 0 0 0 0 0 0 0 0 0 0 0 0 0 0 0 0 0 0 0 0 0 0 0 0 0 0 0 0 0 0 0 0 0 0 0 0 0 0 0 0 0 0 0 0 0 0 0 0 0 0 0 0 0 0 0 0 0 0 0 0 0 0 0 0 0 0 0 0 0 0 0 0 0 0 0 0 0 0 0 0 0 0 0 0 0 0 0 0 0 0 0 0 0 0 0 0 0 0 0 0 0 0 0 0 0 0 0 0 0 0 0 0 0 0 0 0 0 0 0 0 0 0 0 0 0 0 0 0 0 0 0 0 0 0 0 0 0 0 0 0 0 0 0 0 0 0 0 0 0 0 0 0 0 0 0 0 0 0 0 0 0 0 0 0 0 0 0 0 0 0 0 0 0 0 0 0 0 0 0 0 0 0 0 0 0 0 0 0 0 0 0 0 0 0 0 0 0 0 0 0 0 0 0 0 0 0 0 0 0 0 0 0 0 0 0 0 0 0 0 0 0 0 0 0 0 0 0 0 0 0 0 0 0 0 0 0 0 0 0 0 0 0 0 0 0 0 0 0 0 0 0 0 0 0 0 0 0 0 0 0 0 0 0 0 0 0 0 0 0 0 0 0 0 0 0 0 0 0 0 0 0 0 0 0 0 0 0 0 0 0 0 0 0 0 0 0 0 0 0 0 0 0 0 0 0 0 0 0 0 0 0 0 0 0 0 0 0 0 0 0 0 0 0 0 0 0 0 0 0 0 0 0 0 0 0 0 0 0 0 0 0 0 0 0 0 0 0 0 0 0 0 0 0 0 0 0 0 0 0 0 0 0 0 0 0 0 0 0 0 0 0 0 0 0 0 0 0 0 0 0 0 0 0 0 0 0 0 0 0 0 0 0 0 0 0 0 0 0 ];
thru(4,:) = [ 0.198 0.202 0.214 0.206 0.192 0.22 0.2 0.184 0.162 0.222 0.205 0.171 0.208 0.205 0.212 0.175 0.21 0.199 0.201 0.173 0.208 0.218 0.205 0.22 0.21 0.205 0.219 0.198 0.199 0.195 0.204 0.229 0.187 0.186 0.221 0.22 0.228 0.23 0.191 0.213 0.216 0.195 0.221 0.226 0.202 0.186 0.206 0.195 0.192 0.185 0.194 0.214 0.194 0.176 0.158 0.181 0.214 0.212 0.203 0.204 0.214 0.173 0.188 0.158 0.191 0.224 0.192 0.189 0.208 0.193 0.188 0.218 0.203 0.188 0.202 0.196 0.185 0.22 0.2 0.192 0.195 0.201 0.212 0.187 0.205 0.199 0.181 0.19 0.205 0.193 0.22 0.215 0.209 0.219 0.18 0.17 0.193 0.205 0.207 0.202 0.203 0.191 0.204 0.213 0.209 0.204 0.215 0.205 0.225 0.185 0.195 0.213 0.199 0.207 0.185 0.185 0.201 0.18 0.189 0.179 0.162 0.174 0.213 0.201 0.2 0.197 0.172 0.213 0.211 0.185 0.205 0.209 0.186 0.195 0.204 0.214 0.215 0.201 0.194 0.212 0.196 0.215 0.182 0.16 0.203 0.224 0.183 0.213 0.222 0.202 0.192 0.212 0.191 0.201 0.21 0.226 0.178 0.208 0.198 0.215 0.204 0.176 0.19 0.19 0.192 0.211 0.215 0.201 0.192 0.193 0.207 0.179 0.198 0.183 0.193 0.184 0.203 0.191 0.175 0.189 0.232 0.205 0.207 0.197 0.193 0.162 0.198 0.196 0.212 0.199 0.215 0.221 0.197 0.185 0.227 0.175 0.203 0.204 0.232 0.214 0.175 0.209 0.202 0.195 0.212 0.236 0.192 0.188 0.237 0.19 0.218 0.198 0.206 0.209 0.199 0.213 0.184 0.213 0.181 0.19 0.203 0.191 0.197 0.212 0.201 0.21 0.201 0.193 0.217 0.19 0.215 0.233 0.205 0.201 0.219 0.207 0.191 0.218 0.214 0.211 0.194 0.192 0.192 0.201 0.2 0.215 0.202 0.203 0.197 0.218 0.173 0.181 0.216 0.204 0.184 0.208 0.196 0.197 0.19 0.193 0.186 0.18 0.189 0.192 0.237 0.187 0.199 0.194 0.205 0.193 0.2 0.2 0.22 0.191 0.178 0.219 0.211 0.214 0.206 0.215 0.226 0.174 0.196 0.177 0.194 0.213 0.202 0.193 0.227 0.198 0.189 0.206 0.192 0.182 0.196 0.185 0.214 0.22 0.177 0.196 0.194 0.204 0.181 0.222 0.193 0.205 0.178 0.196 0.211 0.224 0.174 0.19 0.181 0.209 0.195 0.197 0.21 0.185 0.2 0.196 0.188 0.213 0.208 0.211 0.208 0.189 0.206 0.197 0.196 0.208 0.211 0.201 0.215 0.193 0.171 0.187 0.229 0.218 0.196 0.214 0.199 0.226 0.18 0.218 0.189 0.208 0.194 0.206 0.205 0.202 0.2 0.195 0.206 0.198 0.198 0.223 0.202 0.191 0.198 0.203 0.187 0.186 0.184 0.206 0.193 0.199 0.207 0.21 0.194 0.207 0.197 0.216 0.217 0.18 0.176 0.19 0.183 0.175 0.217 0.198 0.176 0.195 0.197 0.204 0.183 0.201 0.201 0.19 0.201 0.194 0.224 0.21 0.197 0.182 0.205 0.193 0.188 0.195 0.195 0.213 0.175 0.201 0.188 0.204 0.194 0.203 0.215 0.181 0.199 0.208 0.222 0.186 0.206 0.2 0.208 0.229 0.208 0.177 0.197 0.188 0.196 0.193 0.205 0.186 0.208 0.202 0.209 0.194 0.192 0.235 0.216 0.198 0.217 0.171 0.169 0.207 0.209 0.207 0.204 0.181 0.217 0.165 0.202 0.204 0.195 0.209 0.192 0.209 0.207 0.216 0.191 0.206 0.221 0.205 0.232 0.21 0.188 0.177 0.22 0.213 0.231 0.209 0.194 0.21 0.21 0.206 0.223 0.234 0.215 0.183 0.186 0.181 0.197 0.205 0.204 0.211 0.2 0.19 0.192 0.211 0.196 0.196 0.206 0.199 0.198 0.21 0.191 0.18 0.221 0.216 0.173 0.163 0.193 0.21 0.185 0.218 0.192 0.2 0.192 0.195 0.2 0.204 0.199 0.173 0.224 0.205 0.197 0.188 0.187 0.223 0.206 0.188 0.208 0.198 0.203 0.211 0.186 0.182 0.198 0.203 0.189 0.199 0.193 0.201 0.203 0.192 0.197 0.21 0.201 0.189 0.208 0.192 0.196 0.192 0.217 0.188 0.193 0.204 0.201 0.185 0.206 0.198 0.202 0.182 0.183 0.201 0.217 0.208 0.194 0.216 0.212 0.211 0.179 0.187 0.211 0.202 0.215 0.187 0.209 0.192 0.182 0.225 0.189 0.208 0.206 0.175 0.197 0.197 0.165 0.189 0.225 0.193 0.193 0.2 0.198 0.208 0.193 0.168 0.197 0.211 0.218 0.219 0.197 0.215 0.196 0.203 0.197 0.186 0.195 0.225 0.173 0.187 0.197 0.215 0.218 0.186 0.207 0.191 0.195 0.217 0.216 0.183 0.203 0.212 0.189 0.199 0.207 0.212 0.212 0.189 0.181 0.182 0.195 0.175 0.194 0.224 0.189 0.199 0.193 0.187 0.2 0.223 0.218 0.191 0.201 0.198 0.2 0.201 0.217 0.188 0.204 0.194 0.17 0.183 0.204 0.204 0.2 0.208 0.238 0.219 0.205 0.186 0.183 0.201 0.208 0.195 0.177 0.203 0.2 0.215 0.204 0.196 0.199 0.2 0.203 0.193 0.205 0.197 0.214 0.233 0.179 0.18 0.224 0.199 0.209 0.191 0.199 0.186 0.199 0.191 0.182 0.207 0.212 0.193 0.21 0.208 0.183 0.207 0.206 0.199 0.229 0.181 0.189 0.175 0.191 0.221 0.194 0.173 0.197 0.213 0.203 0.18 0.186 0.22 0.195 0.226 0.185 0.209 0.179 0.204 0.188 0.176 0.211 0.195 0.188 0.197 0.183 0.203 0.215 0.197 0.179 0.201 0.175 0.194 0.223 0.208 0.198 0.194 0.198 0.195 0.171 0.183 0.199 0.199 0.186 0.164 0.198 0.196 0.187 0.201 0.194 0.202 0.19 0.229 0.195 0.212 0.223 0.202 0.216 0.205 0.193 0.212 0.194 0.178 0.201 0.221 0.208 0.202 0.19 0.209 0.205 0.19 0.178 0.182 0.204 0.2 0.197 0.2 0.208 0.193 0.208 0.202 0.187 0.193 0.206 0.196 0.195 0.221 0.222 0.202 0.184 0.22 0.199 0.166 0.197 0.188 0.224 0.215 0.21 0.196 0.203 0.198 0.178 0.204 0.19 0.218 0.194 0.217 0.201 0.195 0.202 0.158 0.224 0.212 0.199 0.21 0.209 0.2 0.181 0.215 0.189 0.222 0.224 0.201 0.191 0.19 0.208 0.232 0.179 0.194 0.182 0.19 0.215 0.224 0.197 0.196 0.188 0.196 0.218 0.212 0.197 0.209 0.223 0.204 0.212 0.203 0.183 0.197 0.213 0.217 0.193 0.19 0.196 0.202 0.193 0.201 0.191 0.202 0.22 0.216 0.19 0.204 0.223 0.21 0.185 0.187 0.19 0.196 0.187 0.201 0.179 0.196 0.203 0.201 0.194 0.172 0.224 0.213 0.168 0.192 0.2 0.182 0.224 0.199 0.19 0.207 0.187 0.205 0.218 0.231 0.206 0.202 0.195 0.207 0.179 0.217 0.183 0.18 0.193 0.187 0.191 0.198 0.195 0.202 0.204 0.195 0.192 0.183 0.199 0.216 0.187 0.21 0.192 0.188 0.189 0.203 0.186 0.199 0.171 0.202 0.219 0.201 0.219 0.196 0.197 0.19 0.201 0.21 0.204 0.215 0.221 0.185 0.179 0.183 0.212 0.194 0.203 0.218 0.215 0.202 0.176 0.215 0.191 0.189 0.194 0.218 0.217 0.23 0.192 0.227 0.211 0.195 0.233 0.198 0.224 0.211 0.194 0.204 0.229 0.201 0.213 0.227 0.202 0.205 0.204 0.184 0.175 0.212 0.212 0.201 0.198 0.204 0.231 0.182 0.201 0.19 0.193 0.191 0.19 0.209 0.192 0.188 0.19 0.196 0.224 0.19 0.18 0.223 0.182 0.197 0.178 0.168 0.191 0.222 0.196 0.196 0.216 0.214 0.195 0.215 0.227 0.188 0.192 0.212 0.192 0.193 0.251 0.185 0.213 0.186 0.172 0.186 0.185 0.194 0.186 0.209 0.213 0.199 0.195 0.203 0.225 0.179 0.175 0.202 0.198 0.208 0.205 0.192 0.2 0.185 0.199 0.172 0.193 0.211 0.22 0.184 0.203 0.199 0.194 0.194 0.187 0.21 0.213 0.212 0.204 0.21 0.215 0.198 0.196 0.215 0.219 0.178 0.212 0.196 0.21 0.183 0.195 0.231 0.228 0.183 0.184 0.203 0.197 0.191 0.219 0.206 0.232 0.215 0.213 0.215 0.196 0.186 0.174 0.185 0.2 0.213 ];
% latency change    = 0.003038
% throughput change = 0.0374244
1%=================================
% Average latency = 116.397
% Accepted packets = 0.1675 at node 15 (avg = 0.200307)
lat(5) = 116.397;
bins = [ 0 ...999];
freq = [ 0 0 1463 153 17 0 0 0 0 0 0 0 9043 1802 269 41 4 0 0 0 0 0 0 0 0 0 0 0 0 0 0 0 0 0 0 0 0 0 0 0 0 0 0 0 0 0 0 0 0 0 0 0 0 0 0 0 0 0 0 0 0 0 0 0 0 0 0 0 0 0 0 0 0 0 0 0 0 0 0 0 0 0 0 0 0 0 0 0 0 0 0 0 0 0 0 0 0 0 0 0 0 0 4999 978 124 12 2 0 0 0 0 0 61789 18863 3498 541 92 10 0 0 0 0 194443 77103 18729 3748 632 118 23 1 1 0 0 0 0 0 0 0 0 0 0 0 0 0 0 0 0 0 0 0 0 0 0 0 0 0 0 0 0 0 0 0 0 0 0 0 0 0 0 0 0 0 0 0 0 0 0 0 0 0 0 0 0 0 0 0 0 0 0 0 0 0 0 0 0 0 0 0 0 0 0 0 0 0 0 0 0 0 0 0 0 0 0 0 0 0 0 0 0 0 0 0 0 0 0 0 0 0 0 0 0 0 0 0 0 0 0 0 0 0 0 0 0 0 0 0 0 0 0 0 0 0 0 0 0 0 0 0 0 0 0 0 0 0 0 0 0 0 0 0 0 0 0 0 0 0 0 0 0 0 0 0 0 0 0 0 0 0 0 0 0 0 0 0 0 0 0 0 0 0 0 0 0 0 0 0 0 0 0 0 0 0 0 0 0 0 0 0 0 0 0 0 0 0 0 0 0 0 0 0 0 0 0 0 0 0 0 0 0 0 0 0 0 0 0 0 0 0 0 0 0 0 0 0 0 0 0 0 0 0 0 0 0 0 0 0 0 0 0 0 0 0 0 0 0 0 0 0 0 0 0 0 0 0 0 0 0 0 0 0 0 0 0 0 0 0 0 0 0 0 0 0 0 0 0 0 0 0 0 0 0 0 0 0 0 0 0 0 0 0 0 0 0 0 0 0 0 0 0 0 0 0 0 0 0 0 0 0 0 0 0 0 0 0 0 0 0 0 0 0 0 0 0 0 0 0 0 0 0 0 0 0 0 0 0 0 0 0 0 0 0 0 0 0 0 0 0 0 0 0 0 0 0 0 0 0 0 0 0 0 0 0 0 0 0 0 0 0 0 0 0 0 0 0 0 0 0 0 0 0 0 0 0 0 0 0 0 0 0 0 0 0 0 0 0 0 0 0 0 0 0 0 0 0 0 0 0 0 0 0 0 0 0 0 0 0 0 0 0 0 0 0 0 0 0 0 0 0 0 0 0 0 0 0 0 0 0 0 0 0 0 0 0 0 0 0 0 0 0 0 0 0 0 0 0 0 0 0 0 0 0 0 0 0 0 0 0 0 0 0 0 0 0 0 0 0 0 0 0 0 0 0 0 0 0 0 0 0 0 0 0 0 0 0 0 0 0 0 0 0 0 0 0 0 0 0 0 0 0 0 0 0 0 0 0 0 0 0 0 0 0 0 0 0 0 0 0 0 0 0 0 0 0 0 0 0 0 0 0 0 0 0 0 0 0 0 0 0 0 0 0 0 0 0 0 0 0 0 0 0 0 0 0 0 0 0 0 0 0 0 0 0 0 0 0 0 0 0 0 0 0 0 0 0 0 0 0 0 0 0 0 0 0 0 0 0 0 0 0 0 0 0 0 0 0 0 0 0 0 0 0 0 0 0 0 0 0 0 0 0 0 0 0 0 0 0 0 0 0 0 0 0 0 0 0 0 0 0 0 0 0 0 0 0 0 0 0 0 0 0 0 0 0 0 0 0 0 0 0 0 0 0 0 0 0 0 0 0 0 0 0 0 0 0 0 0 0 0 0 0 0 0 0 0 0 0 0 0 0 0 0 0 0 0 0 0 0 0 0 0 0 0 0 0 0 0 0 0 0 0 0 0 0 0 0 0 0 0 0 0 0 0 0 0 0 0 0 0 0 0 0 0 0 0 0 0 0 0 0 0 0 0 0 0 0 0 0 0 0 0 0 0 0 0 0 0 0 0 0 0 0 0 0 0 0 0 0 0 0 0 0 0 0 0 0 0 0 0 0 0 0 0 0 0 0 0 0 0 0 0 0 0 0 0 0 0 0 0 0 0 0 0 0 0 0 0 0 0 0 0 0 0 0 0 0 0 0 0 0 0 0 0 0 0 0 0 0 0 0 0 0 0 0 0 0 0 0 0 0 0 0 0 0 0 0 0 0 0 0 0 0 0 0 0 0 0 0 0 0 0 0 0 0 0 0 0 0 0 0 0 ];
thru(5,:) = [ 0.1995 0.201 0.2045 0.204 0.2015 0.2125 0.1995 0.1885 0.1735 0.2035 0.213 0.1915 0.2085 0.2065 0.209 0.1675 0.207 0.1925 0.2 0.196 0.2005 0.2185 0.2085 0.2055 0.2225 0.1995 0.2095 0.1925 0.197 0.196 0.2055 0.22 0.1925 0.2045 0.206 0.2155 0.2115 0.2025 0.2 0.208 0.216 0.203 0.212 0.215 0.196 0.2065 0.212 0.196 0.1935 0.1915 0.194 0.208 0.194 0.1925 0.179 0.1955 0.216 0.2105 0.192 0.2055 0.2145 0.172 0.1975 0.1795 0.1875 0.2015 0.201 0.2015 0.2045 0.192 0.193 0.2085 0.203 0.185 0.204 0.1945 0.1855 0.208 0.2 0.2065 0.192 0.202 0.209 0.1945 0.214 0.197 0.1925 0.1835 0.2005 0.1905 0.204 0.219 0.2065 0.205 0.1965 0.178 0.1875 0.2005 0.2035 0.195 0.196 0.195 0.202 0.2015 0.203 0.194 0.206 0.2025 0.22 0.2055 0.1965 0.2015 0.201 0.2175 0.1865 0.1905 0.2045 0.1875 0.2095 0.1985 0.1855 0.1765 0.2045 0.1995 0.206 0.206 0.197 0.1915 0.2095 0.199 0.207 0.2125 0.195 0.195 0.203 0.2 0.1935 0.207 0.194 0.201 0.192 0.2075 0.191 0.1825 0.1975 0.2175 0.2035 0.205 0.2215 0.2005 0.2015 0.214 0.1975 0.2035 0.2055 0.2215 0.189 0.2135 0.1995 0.212 0.1965 0.186 0.191 0.1895 0.202 0.1995 0.2165 0.2015 0.206 0.1945 0.204 0.188 0.1955 0.197 0.1975 0.1975 0.2325 0.1995 0.1895 0.201 0.2305 0.2095 0.2065 0.2005 0.1955 0.2005 0.207 0.2 0.2065 0.181 0.197 0.203 0.2025 0.1875 0.2195 0.1835 0.2065 0.212 0.2225 0.1985 0.181 0.1895 0.2065 0.2055 0.2165 0.214 0.1905 0.2 0.2235 0.1915 0.2115 0.197 0.199 0.2065 0.206 0.21 0.214 0.198 0.191 0.1955 0.1935 0.203 0.1945 0.1895 0.2065 0.2155 0.199 0.192 0.1995 0.1965 0.2055 0.2175 0.2165 0.204 0.209 0.1975 0.176 0.2105 0.1965 0.2045 0.191 0.1915 0.2085 0.196 0.192 0.2175 0.1945 0.198 0.2085 0.2185 0.1895 0.189 0.198 0.219 0.1975 0.207 0.196 0.214 0.187 0.193 0.1955 0.1915 0.1925 0.1995 0.218 0.1895 0.194 0.203 0.213 0.1795 0.198 0.1915 0.213 0.1945 0.2075 0.2175 0.203 0.2045 0.2015 0.1995 0.2115 0.1905 0.198 0.199 0.203 0.2045 0.2075 0.1845 0.218 0.201 0.1865 0.206 0.1985 0.186 0.196 0.195 0.188 0.212 0.198 0.1995 0.205 0.2035 0.187 0.209 0.2005 0.2125 0.1915 0.1905 0.209 0.2175 0.186 0.1925 0.2005 0.206 0.1985 0.2105 0.218 0.192 0.201 0.199 0.195 0.214 0.1865 0.21 0.213 0.1795 0.202 0.208 0.2055 0.2055 0.2115 0.2005 0.2095 0.196 0.179 0.194 0.217 0.2125 0.1995 0.203 0.198 0.2205 0.1705 0.212 0.194 0.197 0.196 0.19 0.2035 0.2035 0.19 0.2075 0.2045 0.191 0.1925 0.215 0.208 0.1865 0.2 0.1855 0.203 0.1905 0.188 0.196 0.1835 0.1945 0.207 0.199 0.1905 0.2025 0.2005 0.208 0.2215 0.1865 0.186 0.202 0.197 0.196 0.2155 0.1975 0.1915 0.2035 0.2025 0.191 0.185 0.196 0.2015 0.199 0.198 0.187 0.2125 0.2025 0.198 0.1825 0.1995 0.1965 0.1925 0.2055 0.1925 0.2145 0.1915 0.195 0.199 0.2075 0.2005 0.219 0.2135 0.183 0.2075 0.2065 0.206 0.1905 0.207 0.1925 0.192 0.218 0.204 0.1885 0.1945 0.1985 0.201 0.197 0.208 0.1995 0.199 0.1935 0.206 0.1825 0.194 0.203 0.2125 0.2055 0.211 0.173 0.175 0.2105 0.203 0.205 0.2035 0.1975 0.2085 0.185 0.206 0.206 0.199 0.2005 0.195 0.214 0.215 0.204 0.2005 0.2115 0.202 0.2095 0.2185 0.202 0.1985 0.182 0.2135 0.211 0.2185 0.2095 0.1885 0.205 0.2045 0.1915 0.2215 0.2155 0.2095 0.19 0.1935 0.197 0.19 0.207 0.2085 0.2035 0.201 0.2 0.1925 0.204 0.189 0.2035 0.198 0.192 0.196 0.2145 0.1965 0.1905 0.203 0.193 0.1745 0.174 0.1865 0.2075 0.1745 0.2055 0.1915 0.205 0.1905 0.1895 0.1965 0.193 0.2095 0.1845 0.2185 0.2185 0.197 0.1925 0.203 0.226 0.2045 0.1925 0.21 0.195 0.1985 0.2085 0.175 0.17 0.1985 0.1955 0.19 0.2005 0.2045 0.204 0.185 0.199 0.1865 0.1995 0.1995 0.1865 0.2015 0.21 0.2075 0.2035 0.201 0.192 0.2025 0.2085 0.203 0.193 0.202 0.197 0.201 0.1815 0.1995 0.193 0.1985 0.205 0.194 0.2255 0.2115 0.2065 0.1955 0.204 0.199 0.195 0.225 0.2155 0.209 0.1885 0.1955 0.2145 0.194 0.201 0.205 0.185 0.206 0.202 0.182 0.2025 0.204 0.187 0.196 0.207 0.1875 0.206 0.193 0.17 0.1935 0.208 0.2125 0.202 0.2035 0.214 0.2035 0.207 0.2 0.197 0.192 0.205 0.195 0.2035 0.199 0.2145 0.1945 0.201 0.1955 0.1985 0.1925 0.213 0.198 0.1865 0.1965 0.2 0.195 0.203 0.1975 0.2075 0.2095 0.189 0.1795 0.19 0.1995 0.1925 0.194 0.214 0.188 0.205 0.185 0.19 0.2035 0.207 0.2 0.1955 0.2015 0.1945 0.206 0.1985 0.203 0.189 0.198 0.2045 0.18 0.1815 0.198 0.204 0.1985 0.207 0.222 0.2175 0.2155 0.206 0.1925 0.201 0.2045 0.1995 0.1685 0.2005 0.2005 0.209 0.203 0.196 0.1995 0.2025 0.196 0.2045 0.209 0.198 0.203 0.22 0.1845 0.1915 0.2095 0.2025 0.206 0.2015 0.199 0.1915 0.1895 0.1925 0.193 0.192 0.2045 0.195 0.211 0.208 0.188 0.1955 0.2115 0.1975 0.227 0.1915 0.1905 0.184 0.194 0.2065 0.2045 0.189 0.199 0.214 0.2045 0.181 0.2 0.2135 0.1865 0.212 0.1935 0.205 0.1965 0.206 0.198 0.191 0.196 0.1895 0.186 0.199 0.197 0.18 0.2115 0.1795 0.195 0.1935 0.1845 0.1885 0.213 0.209 0.2105 0.1965 0.2065 0.189 0.18 0.187 0.201 0.199 0.1905 0.187 0.1885 0.1945 0.192 0.2075 0.2045 0.2135 0.2 0.221 0.1945 0.2095 0.204 0.1855 0.213 0.198 0.207 0.1975 0.195 0.1865 0.1935 0.2175 0.199 0.206 0.1995 0.1975 0.2135 0.197 0.1835 0.1845 0.199 0.2135 0.198 0.1965 0.2035 0.199 0.204 0.1865 0.1925 0.1935 0.2075 0.197 0.203 0.2195 0.218 0.19 0.1955 0.2215 0.202 0.189 0.204 0.1875 0.212 0.206 0.21 0.214 0.192 0.203 0.1825 0.209 0.195 0.211 0.218 0.2115 0.1965 0.2015 0.1995 0.182 0.216 0.2175 0.2045 0.2055 0.207 0.2 0.1765 0.2005 0.193 0.2135 0.224 0.1995 0.204 0.2115 0.214 0.2215 0.1795 0.1895 0.1945 0.197 0.208 0.208 0.199 0.1895 0.19 0.1935 0.2035 0.1955 0.1975 0.2035 0.218 0.2135 0.2105 0.1985 0.1815 0.207 0.217 0.196 0.202 0.1995 0.203 0.2025 0.1975 0.203 0.1955 0.2155 0.219 0.218 0.2165 0.2005 0.202 0.2065 0.1995 0.1945 0.196 0.1975 0.1945 0.199 0.1885 0.1965 0.2055 0.2005 0.1965 0.19 0.2215 0.1945 0.18 0.1885 0.1975 0.178 0.2005 0.2 0.202 0.1945 0.1975 0.2005 0.2075 0.2295 0.2115 0.1975 0.211 0.2115 0.187 0.23 0.196 0.1965 0.191 0.1845 0.1955 0.201 0.1955 0.2075 0.1935 0.2005 0.182 0.202 0.205 0.2055 0.1865 0.216 0.188 0.1885 0.1935 0.1935 0.191 0.1975 0.183 0.202 0.2065 0.207 0.211 0.2095 0.1995 0.207 0.2025 0.1985 0.2065 0.2105 0.211 0.1915 0.2045 0.1955 0.209 0.1955 0.197 0.205 0.196 0.197 0.1965 0.2055 0.19 0.1925 0.2065 0.2205 0.213 0.2155 0.197 0.2145 0.205 0.2015 0.225 0.1935 0.215 0.208 0.195 0.2155 0.21 0.203 0.204 0.213 0.204 0.2005 0.1985 0.188 0.193 0.202 0.2115 0.2055 0.2085 0.1895 0.208 0.198 0.2095 0.194 0.196 0.1985 0.1965 0.195 0.192 0.1975 0.1945 0.202 0.2105 0.1965 0.1835 0.195 0.19 0.1855 0.1875 0.1935 0.195 0.217 0.1845 0.2015 0.2175 0.2135 0.2175 0.207 0.204 0.1985 0.1945 0.1955 0.199 0.1925 0.2215 0.2055 0.206 0.195 0.187 0.201 0.187 0.1945 0.203 0.1965 0.2165 0.211 0.1955 0.1985 0.2145 0.1925 0.195 0.1965 0.2005 0.2035 0.207 0.1975 0.1985 0.198 0.1935 0.1745 0.2115 0.2075 0.2245 0.1925 0.2015 0.1925 0.1875 0.19 0.199 0.191 0.2155 0.204 0.2075 0.1975 0.219 0.191 0.2065 0.202 0.2165 0.1875 0.1955 0.205 0.1955 0.1915 0.1845 0.2255 0.2215 0.2065 0.1895 0.191 0.195 0.1925 0.218 0.1975 0.211 0.2055 0.214 0.211 0.1905 0.195 0.1885 0.2 0.203 0.192 ];
% latency change    = 0.00215782
% throughput change = 0.00191704
1%=================================
% Average latency = 116.494
% Accepted packets = 0.165333 at node 15 (avg = 0.200056)
lat(6) = 116.494;
bins = [ 0 ...999];
freq = [ 0 0 2182 229 26 0 0 0 0 0 0 0 13448 2714 412 51 6 0 0 0 0 0 0 0 0 0 0 0 0 0 0 0 0 0 0 0 0 0 0 0 0 0 0 0 0 0 0 0 0 0 0 0 0 0 0 0 0 0 0 0 0 0 0 0 0 0 0 0 0 0 0 0 0 0 0 0 0 0 0 0 0 0 0 0 0 0 0 0 0 0 0 0 0 0 0 0 0 0 0 0 0 0 7554 1477 200 17 3 0 0 0 0 0 94497 28563 5351 816 133 16 1 0 0 0 297713 117970 28791 5840 996 182 32 4 1 0 0 0 0 0 0 0 0 0 0 0 0 0 0 0 0 0 0 0 0 0 0 0 0 0 0 0 0 0 0 0 0 0 0 0 0 0 0 0 0 0 0 0 0 0 0 0 0 0 0 0 0 0 0 0 0 0 0 0 0 0 0 0 0 0 0 0 0 0 0 0 0 0 0 0 0 0 0 0 0 0 0 0 0 0 0 0 0 0 0 0 0 0 0 0 0 0 0 0 0 0 0 0 0 0 0 0 0 0 0 0 0 0 0 0 0 0 0 0 0 0 0 0 0 0 0 0 0 0 0 0 0 0 0 0 0 0 0 0 0 0 0 0 0 0 0 0 0 0 0 0 0 0 0 0 0 0 0 0 0 0 0 0 0 0 0 0 0 0 0 0 0 0 0 0 0 0 0 0 0 0 0 0 0 0 0 0 0 0 0 0 0 0 0 0 0 0 0 0 0 0 0 0 0 0 0 0 0 0 0 0 0 0 0 0 0 0 0 0 0 0 0 0 0 0 0 0 0 0 0 0 0 0 0 0 0 0 0 0 0 0 0 0 0 0 0 0 0 0 0 0 0 0 0 0 0 0 0 0 0 0 0 0 0 0 0 0 0 0 0 0 0 0 0 0 0 0 0 0 0 0 0 0 0 0 0 0 0 0 0 0 0 0 0 0 0 0 0 0 0 0 0 0 0 0 0 0 0 0 0 0 0 0 0 0 0 0 0 0 0 0 0 0 0 0 0 0 0 0 0 0 0 0 0 0 0 0 0 0 0 0 0 0 0 0 0 0 0 0 0 0 0 0 0 0 0 0 0 0 0 0 0 0 0 0 0 0 0 0 0 0 0 0 0 0 0 0 0 0 0 0 0 0 0 0 0 0 0 0 0 0 0 0 0 0 0 0 0 0 0 0 0 0 0 0 0 0 0 0 0 0 0 0 0 0 0 0 0 0 0 0 0 0 0 0 0 0 0 0 0 0 0 0 0 0 0 0 0 0 0 0 0 0 0 0 0 0 0 0 0 0 0 0 0 0 0 0 0 0 0 0 0 0 0 0 0 0 0 0 0 0 0 0 0 0 0 0 0 0 0 0 0 0 0 0 0 0 0 0 0 0 0 0 0 0 0 0 0 0 0 0 0 0 0 0 0 0 0 0 0 0 0 0 0 0 0 0 0 0 0 0 0 0 0 0 0 0 0 0 0 0 0 0 0 0 0 0 0 0 0 0 0 0 0 0 0 0 0 0 0 0 0 0 0 0 0 0 0 0 0 0 0 0 0 0 0 0 0 0 0 0 0 0 0 0 0 0 0 0 0 0 0 0 0 0 0 0 0 0 0 0 0 0 0 0 0 0 0 0 0 0 0 0 0 0 0 0 0 0 0 0 0 0 0 0 0 0 0 0 0 0 0 0 0 0 0 0 0 0 0 0 0 0 0 0 0 0 0 0 0 0 0 0 0 0 0 0 0 0 0 0 0 0 0 0 0 0 0 0 0 0 0 0 0 0 0 0 0 0 0 0 0 0 0 0 0 0 0 0 0 0 0 0 0 0 0 0 0 0 0 0 0 0 0 0 0 0 0 0 0 0 0 0 0 0 0 0 0 0 0 0 0 0 0 0 0 0 0 0 0 0 0 0 0 0 0 0 0 0 0 0 0 0 0 0 0 0 0 0 0 0 0 0 0 0 0 0 0 0 0 0 0 0 0 0 0 0 0 0 0 0 0 0 0 0 0 0 0 0 0 0 0 0 0 0 0 0 0 0 0 0 0 0 0 0 0 0 0 0 0 0 0 0 0 0 0 0 0 0 0 0 0 0 0 0 0 0 0 0 0 0 0 0 0 0 0 0 0 0 0 0 0 0 0 0 0 0 0 0 0 0 0 0 0 0 0 0 0 0 0 0 0 0 0 0 0 0 0 0 0 0 0 0 0 0 0 0 0 0 0 0 0 0 0 0 0 0 0 0 ];
thru(6,:) = [ 0.205 0.195 0.195333 0.207333 0.206333 0.214667 0.202667 0.197 0.179 0.207667 0.21 0.192667 0.204 0.207333 0.209333 0.165333 0.199333 0.197333 0.204333 0.195333 0.199333 0.22 0.199667 0.195333 0.219333 0.198333 0.204667 0.2 0.203667 0.197333 0.198333 0.210667 0.196333 0.208 0.197 0.207667 0.207 0.198667 0.196 0.215333 0.209 0.196333 0.207667 0.205 0.201333 0.207333 0.206 0.199667 0.193 0.195333 0.19 0.212 0.200667 0.199667 0.188333 0.202333 0.210667 0.200333 0.201333 0.207333 0.203 0.181333 0.196667 0.193333 0.194333 0.193667 0.197667 0.193333 0.201 0.193667 0.19 0.209333 0.204 0.193333 0.201667 0.196333 0.183 0.205333 0.194667 0.210333 0.202333 0.207333 0.206 0.199 0.22 0.194667 0.196333 0.186 0.204667 0.19 0.202 0.207333 0.205 0.198 0.203333 0.192 0.191 0.205 0.209 0.195333 0.204333 0.200333 0.205667 0.193 0.199333 0.195667 0.205 0.207 0.199333 0.200667 0.192667 0.195667 0.203 0.214667 0.191 0.187667 0.204 0.189667 0.204333 0.199333 0.188667 0.178333 0.206333 0.198667 0.204333 0.206 0.205 0.192667 0.198667 0.199667 0.202 0.214667 0.202667 0.198 0.198 0.193 0.202667 0.210333 0.190667 0.209 0.195 0.212667 0.189 0.189 0.198 0.214667 0.208 0.201667 0.199333 0.197 0.2 0.210333 0.195667 0.210667 0.211333 0.225 0.185333 0.205333 0.199667 0.216 0.192 0.185333 0.199667 0.191667 0.204 0.196333 0.211333 0.204667 0.206333 0.209 0.201667 0.191 0.196333 0.193333 0.193667 0.199667 0.227 0.205667 0.190667 0.198667 0.222667 0.21 0.208333 0.203333 0.196667 0.196667 0.202667 0.203 0.208 0.183333 0.195 0.202667 0.196333 0.188667 0.208333 0.18 0.205 0.2 0.212 0.198667 0.179333 0.194667 0.202 0.214 0.214 0.208333 0.199667 0.198 0.219333 0.19 0.214667 0.208 0.200333 0.208667 0.203333 0.204333 0.215 0.201 0.190333 0.207333 0.199333 0.197 0.191667 0.193 0.211667 0.214667 0.210333 0.193 0.207 0.207667 0.197 0.212667 0.204333 0.196333 0.212 0.205667 0.186 0.200667 0.194667 0.201333 0.198333 0.192 0.209333 0.196667 0.194667 0.218333 0.195333 0.204333 0.201333 0.219333 0.198667 0.198333 0.200333 0.207667 0.191333 0.202333 0.204333 0.207667 0.188333 0.190667 0.198 0.190333 0.193667 0.192667 0.209667 0.189667 0.195667 0.200667 0.21 0.185667 0.198667 0.197333 0.208667 0.196333 0.209667 0.211667 0.202667 0.211 0.199333 0.2 0.206333 0.190667 0.192333 0.199 0.205667 0.213667 0.203667 0.190667 0.213667 0.194667 0.191 0.2 0.201 0.197333 0.190667 0.196333 0.194667 0.203333 0.206667 0.195 0.206667 0.194 0.193667 0.206333 0.205667 0.209333 0.197 0.205 0.202667 0.215667 0.193 0.197333 0.197667 0.200667 0.203333 0.204333 0.202 0.197333 0.203 0.202333 0.195333 0.204 0.192333 0.203667 0.208 0.181333 0.202333 0.193667 0.204 0.201 0.215667 0.206 0.206 0.188333 0.181333 0.198 0.212333 0.207 0.202333 0.198333 0.2 0.215 0.177333 0.199 0.191 0.211667 0.187667 0.189667 0.200333 0.206667 0.190667 0.206333 0.200667 0.188667 0.194667 0.205 0.210333 0.186667 0.199 0.188 0.205333 0.197667 0.187 0.198667 0.177667 0.192 0.208333 0.204333 0.195667 0.201333 0.191333 0.203667 0.208667 0.194 0.194 0.202 0.193333 0.205 0.209 0.194 0.189667 0.209667 0.205333 0.200667 0.185667 0.200333 0.196667 0.202667 0.201333 0.192 0.202667 0.197333 0.195 0.179667 0.196667 0.206667 0.192667 0.207 0.199333 0.203 0.193 0.197333 0.200667 0.206 0.200667 0.208667 0.211 0.182667 0.205333 0.192333 0.201 0.195667 0.211667 0.192 0.194333 0.208333 0.202667 0.193333 0.188 0.194667 0.207333 0.198667 0.208667 0.203667 0.200667 0.199667 0.216667 0.189667 0.201667 0.204 0.213 0.204667 0.205667 0.184667 0.185333 0.208333 0.206333 0.202 0.199667 0.193667 0.210333 0.183667 0.197 0.199667 0.193667 0.195 0.202333 0.218 0.213 0.196667 0.206 0.205 0.203 0.200333 0.210667 0.197667 0.199333 0.186 0.208 0.206333 0.218 0.206 0.190333 0.205 0.204 0.196333 0.211 0.209667 0.196 0.200667 0.197 0.197 0.192 0.202333 0.207333 0.202 0.201667 0.203667 0.190333 0.198667 0.197 0.190333 0.199 0.194667 0.196333 0.211 0.188 0.19 0.198333 0.191333 0.183 0.181 0.196 0.210667 0.182333 0.208667 0.190333 0.204667 0.195 0.186667 0.196 0.191333 0.202667 0.182667 0.216667 0.204333 0.192 0.196333 0.193 0.224667 0.210667 0.207333 0.199 0.189 0.202667 0.201 0.185 0.185667 0.194667 0.197333 0.2 0.197 0.205 0.208667 0.190667 0.2 0.192333 0.200333 0.196 0.191333 0.204 0.203667 0.201667 0.2 0.201 0.192333 0.202 0.209 0.197333 0.19 0.194667 0.195667 0.198333 0.19 0.209 0.196 0.209 0.200667 0.195667 0.22 0.215 0.199667 0.204667 0.202667 0.195667 0.203333 0.217333 0.208333 0.201 0.201 0.19 0.210667 0.190667 0.195 0.198 0.182333 0.203 0.192667 0.194333 0.210667 0.205667 0.194 0.198667 0.206333 0.190333 0.2 0.190667 0.178667 0.205333 0.206 0.206333 0.199667 0.201 0.215 0.197667 0.207333 0.205333 0.196333 0.192 0.206 0.192333 0.203 0.198 0.215333 0.202 0.195667 0.201333 0.197667 0.202333 0.207667 0.203333 0.190333 0.2 0.198667 0.194333 0.203333 0.202333 0.212 0.214 0.191333 0.182667 0.188333 0.204 0.192667 0.2 0.207333 0.191333 0.198333 0.182 0.188333 0.198 0.202667 0.201667 0.193667 0.201667 0.191 0.205333 0.191333 0.193667 0.192667 0.197333 0.210333 0.184333 0.187333 0.191 0.198333 0.2 0.206667 0.220667 0.207 0.211 0.204667 0.199 0.208333 0.205667 0.201 0.176 0.200333 0.197333 0.203 0.202333 0.198 0.2 0.199 0.199 0.203333 0.205667 0.198667 0.201 0.210667 0.191 0.192 0.217667 0.205667 0.204 0.211 0.206333 0.197333 0.189333 0.193667 0.194333 0.202333 0.198 0.195333 0.212667 0.201 0.186667 0.190333 0.206 0.201667 0.219667 0.194333 0.189333 0.188 0.19 0.201333 0.199667 0.183333 0.206 0.202667 0.208 0.184667 0.196667 0.211333 0.188333 0.21 0.195333 0.196667 0.195333 0.205333 0.194333 0.2 0.198333 0.202333 0.195333 0.199 0.193 0.177 0.204333 0.186667 0.202667 0.198667 0.192333 0.192667 0.202 0.209333 0.205 0.204 0.206 0.196 0.186333 0.194 0.193 0.195333 0.198 0.183333 0.19 0.195667 0.193 0.203667 0.2 0.208 0.197667 0.217667 0.189667 0.203667 0.205 0.188 0.218 0.197 0.206333 0.193667 0.199667 0.194 0.2 0.208667 0.198 0.205 0.204667 0.196667 0.202667 0.194667 0.183333 0.184333 0.203667 0.208 0.191 0.188333 0.200667 0.197667 0.197333 0.196 0.197333 0.2 0.206 0.194667 0.199667 0.202 0.213333 0.196667 0.195667 0.216 0.198 0.188 0.209333 0.188333 0.209 0.202333 0.197333 0.208667 0.192667 0.201667 0.193667 0.209 0.198 0.205 0.222667 0.207667 0.195333 0.194333 0.192 0.183 0.211333 0.202 0.196667 0.204 0.21 0.207333 0.182333 0.204333 0.187 0.207667 0.215 0.194 0.199667 0.209667 0.215667 0.210333 0.192333 0.199667 0.191 0.197333 0.203333 0.200333 0.198 0.193 0.197667 0.195667 0.200333 0.190667 0.198 0.202 0.214667 0.215667 0.206667 0.201333 0.189 0.203 0.207 0.194333 0.203667 0.201333 0.198667 0.201333 0.197333 0.197 0.189667 0.211333 0.210667 0.219 0.204333 0.211 0.204 0.204667 0.204333 0.209667 0.201667 0.2 0.199333 0.191667 0.190667 0.195 0.198333 0.205 0.198667 0.196 0.216333 0.189667 0.191 0.190333 0.194333 0.187667 0.198333 0.195667 0.198333 0.191 0.202333 0.204667 0.202333 0.215667 0.210333 0.201333 0.207333 0.213667 0.193333 0.220333 0.201 0.207667 0.186667 0.192 0.187 0.198333 0.197 0.204333 0.192333 0.199667 0.182667 0.200667 0.204 0.199667 0.187667 0.206 0.188 0.195667 0.199333 0.203667 0.2 0.205667 0.190333 0.196333 0.207333 0.208333 0.206 0.207 0.203333 0.207 0.197 0.197 0.203667 0.201333 0.207 0.191333 0.204667 0.196 0.212667 0.194333 0.199667 0.198667 0.197333 0.196667 0.201667 0.210667 0.192667 0.192333 0.203333 0.220333 0.203667 0.205333 0.207333 0.208 0.201333 0.201333 0.214 0.194333 0.212 0.202333 0.191 0.218 0.21 0.187 0.200333 0.206 0.208667 0.195 0.194333 0.194667 0.194333 0.205667 0.211667 0.195333 0.204667 0.203667 0.211333 0.191 0.209 0.193 0.193 0.205333 0.196333 0.193 0.2 0.195333 0.193 0.198333 0.211 0.202 0.196333 0.192 0.196667 0.196667 0.197667 0.192667 0.190667 0.204667 0.192 0.200333 0.212 0.215 0.210667 0.203 0.203667 0.192333 0.195 0.193 0.195333 0.187333 0.219333 0.210667 0.197 0.198333 0.189667 0.2 0.193667 0.187667 0.195667 0.195333 0.213333 0.206667 0.202333 0.198333 0.214667 0.197 0.199667 0.198 0.201333 0.202667 0.201333 0.194 0.205333 0.205667 0.195667 0.185 0.202 0.207333 0.217 0.193 0.198 0.187667 0.188333 0.192 0.203333 0.190333 0.202333 0.204667 0.198667 0.196333 0.221 0.192333 0.205333 0.197 0.206333 0.186 0.2 0.211 0.194667 0.198667 0.188333 0.215 0.209 0.197667 0.184333 0.199 0.198667 0.204667 0.214333 0.195 0.204 0.200667 0.211667 0.21 0.183667 0.195667 0.193667 0.206333 0.2 0.204 ];
% latency change    = 0.000835321
% throughput change = 0.00125833
% Draining all recorded packets ...
% Draining remaining packets ...
Time taken is 6247 cycles
====== Traffic class 0 ======
Overall average latency = 116.621 (1 samples)
Overall average accepted rate = 0.19966 (1 samples)
Overall min accepted rate = 0.166307 (1 samples)
Average hops = 3.69197 (1243422 samples)
Total run time 84.6511
LOLOL
1294255
