BEGIN Configuration File
Name: dragonflyconfig
// Dragonfly
//
// Flow co1	ntrol
//

// Total number of VCs must match the above assignments
num_vcs     = 3;

vc_buf_size = 256;

wait_for_tail_credit = 0;

//
// Router architecture
//
vc_allocator = islip; 
sw_allocator = islip;
alloc_iters  = 4;

credit_delay   = 0;
routing_delay  = 0;
vc_alloc_delay = 0;
sw_alloc_delay = 0;
st_final_delay = 0;

input_speedup     = 1;
output_speedup    = 1;
internal_speedup  = 1.7;


//iq_routing_delay = 0;
//row_routing_delay = 0;
//subsw_alloc_delay = 0;
//out_alloc_delay = 0;

warmup_periods = 3;
sim_count          = 1;

sample_period  = 1000;  


routing_function = min;

priority = none;
traffic       = uniform ;

injection_rate =0.2;
const_flits_per_packet = 1;

topology = dragonflynew;

k  = 4;
n  = 1;


END Configuration File
 Dragonfly 
 p = 4 n = 1
 each switch - total radix =  15
 # of switches = 264
 # of channels = 2904
 # of sources = 1056
 # of nodes ( size of network ) = 1056
 # of groups (_g) = 33
 # of routers per group (_a) = 8
Done links
Unable to open flit watch file, continuing with simulation
I am thread 0
I am thread 1
0%=================================
% Average latency = 116.242
% Accepted packets = 0.134 at node 871 (avg = 0.176751)
lat(1) = 116.242;
bins = [ 0 ...999];
freq = [ 0 1 705 77 8 1 0 0 0 0 0 1 4559 822 137 24 2 0 0 0 0 0 0 0 0 0 0 0 0 0 0 0 0 0 0 0 0 0 0 0 0 0 0 0 0 0 0 0 0 0 0 0 0 0 0 0 0 0 0 0 0 0 0 0 0 0 0 0 0 0 0 0 0 0 0 0 0 0 0 0 0 0 0 0 0 0 0 0 0 0 0 0 0 0 0 0 0 0 0 0 0 0 2350 433 77 3 2 0 0 0 0 7 28599 8843 1884 340 54 6 1 0 0 12 85151 39368 10395 2237 444 85 17 3 1 0 0 0 0 0 0 0 0 0 0 0 0 0 0 0 0 0 0 0 0 0 0 0 0 0 0 0 0 0 0 0 0 0 0 0 0 0 0 0 0 0 0 0 0 0 0 0 0 0 0 0 0 0 0 0 0 0 0 0 0 0 0 0 0 0 0 0 0 0 0 0 0 0 0 0 0 0 0 0 0 0 0 0 0 0 0 0 0 0 0 0 0 0 0 0 0 0 0 0 0 0 0 0 0 0 0 0 0 0 0 0 0 0 0 0 0 0 0 0 0 0 0 0 0 0 0 0 0 0 0 0 0 0 0 0 0 0 0 0 0 0 0 0 0 0 0 0 0 0 0 0 0 0 0 0 0 0 0 0 0 0 0 0 0 0 0 0 0 0 0 0 0 0 0 0 0 0 0 0 0 0 0 0 0 0 0 0 0 0 0 0 0 0 0 0 0 0 0 0 0 0 0 0 0 0 0 0 0 0 0 0 0 0 0 0 0 0 0 0 0 0 0 0 0 0 0 0 0 0 0 0 0 0 0 0 0 0 0 0 0 0 0 0 0 0 0 0 0 0 0 0 0 0 0 0 0 0 0 0 0 0 0 0 0 0 0 0 0 0 0 0 0 0 0 0 0 0 0 0 0 0 0 0 0 0 0 0 0 0 0 0 0 0 0 0 0 0 0 0 0 0 0 0 0 0 0 0 0 0 0 0 0 0 0 0 0 0 0 0 0 0 0 0 0 0 0 0 0 0 0 0 0 0 0 0 0 0 0 0 0 0 0 0 0 0 0 0 0 0 0 0 0 0 0 0 0 0 0 0 0 0 0 0 0 0 0 0 0 0 0 0 0 0 0 0 0 0 0 0 0 0 0 0 0 0 0 0 0 0 0 0 0 0 0 0 0 0 0 0 0 0 0 0 0 0 0 0 0 0 0 0 0 0 0 0 0 0 0 0 0 0 0 0 0 0 0 0 0 0 0 0 0 0 0 0 0 0 0 0 0 0 0 0 0 0 0 0 0 0 0 0 0 0 0 0 0 0 0 0 0 0 0 0 0 0 0 0 0 0 0 0 0 0 0 0 0 0 0 0 0 0 0 0 0 0 0 0 0 0 0 0 0 0 0 0 0 0 0 0 0 0 0 0 0 0 0 0 0 0 0 0 0 0 0 0 0 0 0 0 0 0 0 0 0 0 0 0 0 0 0 0 0 0 0 0 0 0 0 0 0 0 0 0 0 0 0 0 0 0 0 0 0 0 0 0 0 0 0 0 0 0 0 0 0 0 0 0 0 0 0 0 0 0 0 0 0 0 0 0 0 0 0 0 0 0 0 0 0 0 0 0 0 0 0 0 0 0 0 0 0 0 0 0 0 0 0 0 0 0 0 0 0 0 0 0 0 0 0 0 0 0 0 0 0 0 0 0 0 0 0 0 0 0 0 0 0 0 0 0 0 0 0 0 0 0 0 0 0 0 0 0 0 0 0 0 0 0 0 0 0 0 0 0 0 0 0 0 0 0 0 0 0 0 0 0 0 0 0 0 0 0 0 0 0 0 0 0 0 0 0 0 0 0 0 0 0 0 0 0 0 0 0 0 0 0 0 0 0 0 0 0 0 0 0 0 0 0 0 0 0 0 0 0 0 0 0 0 0 0 0 0 0 0 0 0 0 0 0 0 0 0 0 0 0 0 0 0 0 0 0 0 0 0 0 0 0 0 0 0 0 0 0 0 0 0 0 0 0 0 0 0 0 0 0 0 0 0 0 0 0 0 0 0 0 0 0 0 0 0 0 0 0 0 0 0 0 0 0 0 0 0 0 0 0 0 0 0 0 0 0 0 0 0 0 0 0 0 0 0 0 0 0 0 0 0 0 0 0 0 0 0 0 0 0 0 0 0 0 0 0 0 0 0 0 0 0 0 0 0 0 0 0 0 0 0 0 0 0 0 0 0 0 0 0 0 0 0 0 0 ];
thru(1,:) = [ 0.182 0.186 0.171 0.187 0.18 0.193 0.168 0.178 0.187 0.187 0.172 0.184 0.182 0.177 0.192 0.158 0.191 0.163 0.171 0.19 0.17 0.169 0.182 0.185 0.174 0.195 0.18 0.178 0.179 0.175 0.169 0.162 0.2 0.186 0.176 0.164 0.18 0.191 0.189 0.196 0.181 0.17 0.152 0.176 0.161 0.186 0.167 0.169 0.165 0.198 0.179 0.159 0.164 0.168 0.155 0.182 0.178 0.173 0.202 0.185 0.164 0.174 0.193 0.209 0.188 0.193 0.156 0.165 0.181 0.169 0.154 0.185 0.159 0.165 0.167 0.196 0.172 0.157 0.168 0.182 0.179 0.181 0.187 0.19 0.184 0.176 0.164 0.156 0.172 0.175 0.173 0.169 0.188 0.166 0.18 0.195 0.194 0.172 0.167 0.183 0.191 0.176 0.178 0.189 0.176 0.184 0.176 0.17 0.17 0.2 0.17 0.181 0.184 0.184 0.181 0.182 0.177 0.171 0.183 0.182 0.16 0.172 0.168 0.177 0.196 0.18 0.194 0.179 0.178 0.154 0.166 0.156 0.185 0.17 0.189 0.173 0.177 0.172 0.151 0.167 0.169 0.169 0.167 0.179 0.191 0.166 0.175 0.195 0.199 0.188 0.165 0.171 0.174 0.163 0.19 0.195 0.201 0.162 0.192 0.185 0.195 0.189 0.209 0.155 0.175 0.165 0.186 0.192 0.179 0.184 0.164 0.165 0.175 0.197 0.173 0.182 0.164 0.191 0.187 0.216 0.164 0.164 0.213 0.183 0.169 0.158 0.184 0.198 0.171 0.154 0.152 0.166 0.171 0.19 0.169 0.183 0.172 0.162 0.176 0.181 0.198 0.161 0.172 0.197 0.169 0.161 0.176 0.182 0.165 0.159 0.193 0.189 0.176 0.138 0.205 0.166 0.172 0.183 0.184 0.194 0.167 0.187 0.179 0.166 0.198 0.198 0.168 0.178 0.18 0.163 0.171 0.218 0.197 0.161 0.168 0.185 0.192 0.198 0.161 0.15 0.158 0.191 0.166 0.189 0.171 0.183 0.141 0.163 0.175 0.146 0.164 0.173 0.187 0.171 0.193 0.178 0.17 0.172 0.172 0.174 0.184 0.171 0.16 0.19 0.168 0.161 0.181 0.205 0.166 0.164 0.196 0.178 0.182 0.158 0.174 0.184 0.199 0.179 0.177 0.164 0.152 0.155 0.155 0.188 0.169 0.159 0.178 0.171 0.189 0.181 0.178 0.161 0.189 0.162 0.211 0.175 0.193 0.162 0.199 0.165 0.187 0.165 0.195 0.184 0.189 0.178 0.18 0.196 0.172 0.174 0.154 0.17 0.176 0.192 0.179 0.16 0.165 0.181 0.183 0.173 0.19 0.166 0.162 0.146 0.173 0.201 0.177 0.192 0.169 0.166 0.191 0.192 0.19 0.188 0.191 0.18 0.174 0.196 0.171 0.179 0.162 0.182 0.177 0.164 0.173 0.182 0.145 0.191 0.181 0.17 0.186 0.169 0.215 0.162 0.174 0.157 0.157 0.169 0.175 0.16 0.168 0.17 0.189 0.153 0.179 0.176 0.158 0.181 0.178 0.187 0.164 0.175 0.178 0.187 0.171 0.197 0.17 0.174 0.164 0.208 0.157 0.172 0.181 0.173 0.173 0.185 0.178 0.189 0.158 0.173 0.154 0.166 0.157 0.158 0.155 0.193 0.183 0.17 0.176 0.177 0.182 0.19 0.197 0.179 0.174 0.181 0.173 0.146 0.196 0.17 0.2 0.188 0.166 0.169 0.167 0.158 0.186 0.189 0.189 0.161 0.163 0.187 0.163 0.189 0.166 0.179 0.167 0.191 0.159 0.16 0.154 0.188 0.18 0.165 0.181 0.18 0.199 0.152 0.179 0.202 0.159 0.164 0.18 0.161 0.201 0.172 0.166 0.185 0.194 0.182 0.195 0.155 0.16 0.17 0.167 0.216 0.188 0.175 0.169 0.151 0.199 0.182 0.2 0.167 0.164 0.17 0.169 0.171 0.181 0.158 0.161 0.183 0.169 0.162 0.194 0.193 0.185 0.155 0.161 0.192 0.184 0.192 0.175 0.147 0.187 0.173 0.191 0.161 0.187 0.175 0.161 0.179 0.174 0.177 0.157 0.169 0.151 0.154 0.207 0.198 0.181 0.197 0.163 0.175 0.188 0.175 0.181 0.193 0.158 0.177 0.158 0.181 0.189 0.142 0.18 0.183 0.169 0.177 0.159 0.18 0.174 0.163 0.168 0.189 0.209 0.18 0.192 0.176 0.159 0.201 0.14 0.154 0.19 0.179 0.194 0.16 0.18 0.161 0.163 0.218 0.174 0.161 0.158 0.167 0.176 0.176 0.162 0.171 0.17 0.17 0.199 0.19 0.184 0.179 0.178 0.172 0.178 0.177 0.2 0.179 0.174 0.202 0.148 0.181 0.162 0.176 0.188 0.156 0.162 0.162 0.175 0.168 0.15 0.204 0.179 0.167 0.156 0.169 0.173 0.174 0.193 0.167 0.16 0.178 0.178 0.165 0.163 0.184 0.203 0.156 0.166 0.154 0.179 0.157 0.176 0.162 0.159 0.173 0.192 0.185 0.166 0.174 0.204 0.205 0.174 0.174 0.195 0.177 0.178 0.178 0.185 0.177 0.179 0.18 0.167 0.185 0.18 0.183 0.174 0.163 0.175 0.215 0.188 0.186 0.184 0.174 0.17 0.179 0.18 0.174 0.18 0.18 0.17 0.191 0.185 0.169 0.195 0.17 0.179 0.151 0.214 0.194 0.151 0.2 0.193 0.174 0.182 0.178 0.183 0.175 0.162 0.194 0.203 0.168 0.154 0.176 0.162 0.172 0.169 0.175 0.174 0.182 0.186 0.187 0.183 0.164 0.157 0.16 0.188 0.182 0.157 0.187 0.16 0.177 0.18 0.174 0.162 0.183 0.187 0.209 0.155 0.164 0.155 0.167 0.168 0.196 0.181 0.168 0.174 0.175 0.163 0.18 0.204 0.154 0.188 0.168 0.188 0.178 0.181 0.184 0.167 0.15 0.18 0.195 0.175 0.191 0.179 0.185 0.173 0.152 0.186 0.18 0.19 0.178 0.193 0.162 0.163 0.162 0.139 0.173 0.164 0.169 0.165 0.188 0.181 0.175 0.186 0.177 0.16 0.168 0.189 0.183 0.186 0.184 0.176 0.168 0.159 0.189 0.197 0.211 0.168 0.192 0.177 0.189 0.182 0.2 0.181 0.205 0.173 0.176 0.155 0.212 0.182 0.151 0.181 0.187 0.183 0.182 0.193 0.163 0.193 0.186 0.175 0.188 0.185 0.189 0.167 0.191 0.181 0.167 0.174 0.167 0.183 0.194 0.185 0.2 0.149 0.154 0.173 0.2 0.186 0.184 0.181 0.171 0.154 0.174 0.187 0.183 0.192 0.165 0.196 0.177 0.15 0.189 0.153 0.208 0.194 0.205 0.182 0.164 0.196 0.176 0.176 0.172 0.165 0.157 0.199 0.163 0.141 0.167 0.191 0.16 0.172 0.153 0.198 0.168 0.198 0.181 0.159 0.159 0.162 0.163 0.164 0.165 0.186 0.169 0.175 0.189 0.181 0.181 0.164 0.184 0.17 0.159 0.187 0.162 0.16 0.2 0.171 0.167 0.179 0.162 0.186 0.206 0.155 0.174 0.156 0.187 0.156 0.207 0.166 0.156 0.205 0.191 0.194 0.21 0.196 0.179 0.162 0.163 0.202 0.178 0.195 0.139 0.174 0.186 0.175 0.159 0.165 0.167 0.172 0.134 0.179 0.227 0.173 0.216 0.171 0.192 0.162 0.145 0.178 0.187 0.203 0.165 0.195 0.194 0.196 0.205 0.175 0.192 0.157 0.178 0.173 0.149 0.173 0.166 0.179 0.193 0.18 0.188 0.168 0.154 0.171 0.189 0.203 0.175 0.181 0.177 0.192 0.181 0.16 0.162 0.17 0.163 0.172 0.182 0.174 0.157 0.21 0.16 0.191 0.154 0.168 0.18 0.167 0.186 0.141 0.203 0.176 0.144 0.183 0.192 0.186 0.172 0.183 0.168 0.205 0.188 0.212 0.162 0.163 0.173 0.189 0.157 0.212 0.169 0.18 0.187 0.19 0.178 0.182 0.179 0.205 0.164 0.164 0.155 0.208 0.184 0.198 0.19 0.181 0.183 0.183 0.159 0.181 0.159 0.184 0.188 0.192 0.184 0.181 0.174 0.181 0.163 0.178 0.174 0.191 0.175 0.17 0.173 0.168 0.175 0.169 0.193 0.192 0.163 0.17 0.156 0.198 0.179 0.175 0.18 0.2 0.176 0.184 0.167 0.188 0.182 0.157 0.184 0.2 0.182 0.171 0.166 0.17 0.206 0.182 0.164 0.192 0.169 0.19 0.153 0.175 0.187 0.178 0.18 0.18 0.165 0.2 0.183 0.147 0.187 0.151 0.174 0.16 0.18 0.173 0.188 0.136 0.173 0.153 0.168 0.167 0.185 0.152 0.169 0.14 0.188 0.175 0.189 0.172 0.19 0.16 0.172 0.145 0.196 0.203 0.201 0.183 0.178 0.195 0.166 0.195 0.163 0.183 0.189 ];
% latency change    = 1
% throughput change = 1
I am thread 0
I am thread 1
0%=================================
% Average latency = 116.501
% Accepted packets = 0.1545 at node 246 (avg = 0.188475)
lat(2) = 116.501;
bins = [ 0 ...999];
freq = [ 0 2 1421 153 12 4 0 0 0 0 0 2 8956 1768 290 42 5 1 1 0 0 0 0 0 0 0 0 0 0 0 0 0 0 0 0 0 0 0 0 0 0 0 0 0 0 0 0 0 0 0 0 0 0 0 0 0 0 0 0 0 0 0 0 0 0 0 0 0 0 0 0 0 0 0 0 0 0 0 0 0 0 0 0 0 0 0 0 0 0 0 0 0 0 0 0 0 0 0 0 0 0 1 4910 962 157 19 4 0 0 0 0 12 60470 18964 3955 733 126 19 1 1 0 33 181877 84431 22577 4913 1000 196 36 4 2 0 0 0 0 0 0 0 0 0 0 0 0 0 0 0 0 0 0 0 0 0 0 0 0 0 0 0 0 0 0 0 0 0 0 0 0 0 0 0 0 0 0 0 0 0 0 0 0 0 0 0 0 0 0 0 0 0 0 0 0 0 0 0 0 0 0 0 0 0 0 0 0 0 0 0 0 0 0 0 0 0 0 0 0 0 0 0 0 0 0 0 0 0 0 0 0 0 0 0 0 0 0 0 0 0 0 0 0 0 0 0 0 0 0 0 0 0 0 0 0 0 0 0 0 0 0 0 0 0 0 0 0 0 0 0 0 0 0 0 0 0 0 0 0 0 0 0 0 0 0 0 0 0 0 0 0 0 0 0 0 0 0 0 0 0 0 0 0 0 0 0 0 0 0 0 0 0 0 0 0 0 0 0 0 0 0 0 0 0 0 0 0 0 0 0 0 0 0 0 0 0 0 0 0 0 0 0 0 0 0 0 0 0 0 0 0 0 0 0 0 0 0 0 0 0 0 0 0 0 0 0 0 0 0 0 0 0 0 0 0 0 0 0 0 0 0 0 0 0 0 0 0 0 0 0 0 0 0 0 0 0 0 0 0 0 0 0 0 0 0 0 0 0 0 0 0 0 0 0 0 0 0 0 0 0 0 0 0 0 0 0 0 0 0 0 0 0 0 0 0 0 0 0 0 0 0 0 0 0 0 0 0 0 0 0 0 0 0 0 0 0 0 0 0 0 0 0 0 0 0 0 0 0 0 0 0 0 0 0 0 0 0 0 0 0 0 0 0 0 0 0 0 0 0 0 0 0 0 0 0 0 0 0 0 0 0 0 0 0 0 0 0 0 0 0 0 0 0 0 0 0 0 0 0 0 0 0 0 0 0 0 0 0 0 0 0 0 0 0 0 0 0 0 0 0 0 0 0 0 0 0 0 0 0 0 0 0 0 0 0 0 0 0 0 0 0 0 0 0 0 0 0 0 0 0 0 0 0 0 0 0 0 0 0 0 0 0 0 0 0 0 0 0 0 0 0 0 0 0 0 0 0 0 0 0 0 0 0 0 0 0 0 0 0 0 0 0 0 0 0 0 0 0 0 0 0 0 0 0 0 0 0 0 0 0 0 0 0 0 0 0 0 0 0 0 0 0 0 0 0 0 0 0 0 0 0 0 0 0 0 0 0 0 0 0 0 0 0 0 0 0 0 0 0 0 0 0 0 0 0 0 0 0 0 0 0 0 0 0 0 0 0 0 0 0 0 0 0 0 0 0 0 0 0 0 0 0 0 0 0 0 0 0 0 0 0 0 0 0 0 0 0 0 0 0 0 0 0 0 0 0 0 0 0 0 0 0 0 0 0 0 0 0 0 0 0 0 0 0 0 0 0 0 0 0 0 0 0 0 0 0 0 0 0 0 0 0 0 0 0 0 0 0 0 0 0 0 0 0 0 0 0 0 0 0 0 0 0 0 0 0 0 0 0 0 0 0 0 0 0 0 0 0 0 0 0 0 0 0 0 0 0 0 0 0 0 0 0 0 0 0 0 0 0 0 0 0 0 0 0 0 0 0 0 0 0 0 0 0 0 0 0 0 0 0 0 0 0 0 0 0 0 0 0 0 0 0 0 0 0 0 0 0 0 0 0 0 0 0 0 0 0 0 0 0 0 0 0 0 0 0 0 0 0 0 0 0 0 0 0 0 0 0 0 0 0 0 0 0 0 0 0 0 0 0 0 0 0 0 0 0 0 0 0 0 0 0 0 0 0 0 0 0 0 0 0 0 0 0 0 0 0 0 0 0 0 0 0 0 0 0 0 0 0 0 0 0 0 0 0 0 0 0 0 0 0 0 0 0 0 0 0 0 0 0 0 0 0 0 0 0 0 0 0 0 0 0 0 0 0 0 0 0 0 0 0 0 0 0 0 0 0 0 0 0 0 0 0 0 0 0 0 0 0 0 0 0 0 0 ];
thru(2,:) = [ 0.181 0.1995 0.1895 0.1915 0.1855 0.2005 0.1755 0.191 0.1995 0.193 0.1875 0.202 0.1875 0.189 0.1915 0.1755 0.183 0.1825 0.174 0.1895 0.18 0.1865 0.1845 0.195 0.176 0.187 0.196 0.198 0.2135 0.177 0.2065 0.174 0.203 0.202 0.188 0.1775 0.1865 0.195 0.188 0.1965 0.1905 0.1805 0.165 0.1675 0.182 0.1835 0.185 0.1825 0.1965 0.205 0.186 0.1855 0.175 0.1825 0.184 0.1895 0.193 0.197 0.21 0.194 0.1645 0.191 0.196 0.194 0.2035 0.2065 0.1855 0.181 0.183 0.202 0.179 0.2055 0.169 0.188 0.1835 0.217 0.19 0.177 0.1685 0.191 0.1905 0.1855 0.2075 0.195 0.2155 0.1935 0.181 0.1835 0.171 0.185 0.187 0.177 0.1855 0.188 0.194 0.208 0.194 0.202 0.1825 0.185 0.203 0.1745 0.177 0.1915 0.196 0.1995 0.1915 0.179 0.1885 0.203 0.1945 0.1925 0.1965 0.182 0.193 0.1935 0.203 0.185 0.1895 0.1895 0.1715 0.175 0.1765 0.198 0.197 0.179 0.19 0.198 0.195 0.165 0.198 0.179 0.183 0.1895 0.2105 0.196 0.194 0.188 0.175 0.1795 0.1795 0.199 0.191 0.193 0.2005 0.184 0.189 0.2045 0.1945 0.2025 0.1765 0.173 0.1915 0.181 0.1985 0.1955 0.1935 0.189 0.202 0.199 0.1945 0.1805 0.1965 0.1865 0.1925 0.1745 0.194 0.2 0.2025 0.1985 0.1915 0.177 0.186 0.1955 0.182 0.18 0.166 0.194 0.205 0.214 0.1925 0.1815 0.211 0.175 0.1835 0.1855 0.199 0.201 0.1925 0.1865 0.1895 0.1725 0.1795 0.189 0.1775 0.199 0.182 0.197 0.19 0.212 0.195 0.168 0.1755 0.2055 0.19 0.177 0.1935 0.203 0.184 0.1715 0.193 0.2025 0.1805 0.183 0.1845 0.189 0.1935 0.197 0.1945 0.197 0.181 0.1925 0.1995 0.1915 0.198 0.2115 0.183 0.1885 0.181 0.1845 0.2015 0.2045 0.2045 0.185 0.1875 0.1885 0.191 0.1915 0.179 0.1795 0.178 0.2015 0.1915 0.213 0.1905 0.195 0.1545 0.1815 0.1835 0.1635 0.172 0.1975 0.199 0.1815 0.2035 0.1825 0.1835 0.1815 0.19 0.1815 0.1995 0.18 0.163 0.207 0.1745 0.191 0.1825 0.199 0.193 0.1795 0.1915 0.1915 0.1825 0.1815 0.181 0.1895 0.2095 0.186 0.1905 0.1895 0.1835 0.175 0.1825 0.1895 0.181 0.159 0.2005 0.172 0.19 0.173 0.1985 0.1705 0.193 0.1805 0.203 0.1845 0.185 0.1765 0.196 0.1735 0.198 0.188 0.185 0.1885 0.197 0.193 0.182 0.185 0.1945 0.189 0.167 0.1935 0.1945 0.1835 0.1875 0.174 0.1825 0.1825 0.194 0.1865 0.211 0.1855 0.1775 0.1755 0.183 0.1865 0.1875 0.192 0.1845 0.1805 0.197 0.199 0.196 0.1995 0.19 0.192 0.1745 0.1965 0.1845 0.1895 0.18 0.191 0.2045 0.17 0.1945 0.199 0.1765 0.1945 0.182 0.174 0.1885 0.184 0.198 0.182 0.183 0.1745 0.1735 0.189 0.19 0.1725 0.1755 0.1765 0.201 0.1755 0.1795 0.198 0.171 0.184 0.192 0.1935 0.184 0.1965 0.1775 0.208 0.1975 0.1895 0.185 0.1895 0.1745 0.214 0.1745 0.1915 0.1805 0.1775 0.197 0.195 0.2075 0.1925 0.171 0.193 0.168 0.1875 0.1815 0.174 0.18 0.2165 0.1845 0.1955 0.1835 0.1895 0.197 0.199 0.1915 0.193 0.181 0.1905 0.1905 0.1725 0.1905 0.185 0.195 0.1915 0.1855 0.187 0.1775 0.168 0.213 0.205 0.214 0.1805 0.186 0.1895 0.178 0.183 0.179 0.1835 0.178 0.176 0.173 0.186 0.178 0.1885 0.194 0.1895 0.195 0.1975 0.204 0.18 0.185 0.2025 0.178 0.176 0.1975 0.1725 0.192 0.185 0.186 0.198 0.1985 0.1915 0.195 0.1795 0.1855 0.179 0.186 0.23 0.1945 0.1875 0.186 0.1735 0.207 0.208 0.202 0.1745 0.1725 0.174 0.1845 0.197 0.1985 0.1895 0.1775 0.1885 0.2 0.184 0.197 0.1895 0.189 0.1725 0.1875 0.2065 0.194 0.1935 0.1745 0.164 0.196 0.1885 0.207 0.182 0.1955 0.1875 0.1805 0.1965 0.186 0.192 0.1775 0.191 0.169 0.189 0.2035 0.207 0.205 0.202 0.1755 0.182 0.1995 0.183 0.1855 0.206 0.192 0.192 0.1795 0.194 0.194 0.156 0.197 0.215 0.1955 0.174 0.1885 0.18 0.198 0.187 0.184 0.1935 0.211 0.1835 0.205 0.1795 0.176 0.209 0.1565 0.164 0.1915 0.1795 0.194 0.1845 0.193 0.18 0.1825 0.2055 0.171 0.187 0.171 0.1745 0.1895 0.1915 0.174 0.1855 0.1725 0.189 0.183 0.211 0.207 0.189 0.1965 0.1845 0.187 0.191 0.2075 0.176 0.175 0.2035 0.187 0.1995 0.1785 0.196 0.2 0.1715 0.176 0.174 0.189 0.181 0.175 0.212 0.19 0.181 0.1745 0.188 0.198 0.1915 0.203 0.1945 0.201 0.193 0.179 0.2005 0.1775 0.1895 0.21 0.172 0.1835 0.1805 0.194 0.182 0.1905 0.1805 0.1855 0.186 0.198 0.1895 0.1825 0.181 0.212 0.1875 0.1915 0.1875 0.2 0.1905 0.1915 0.2005 0.1915 0.1785 0.184 0.183 0.1895 0.1875 0.196 0.1935 0.1895 0.178 0.181 0.2045 0.2015 0.1885 0.2 0.1815 0.1815 0.1825 0.1845 0.1965 0.1795 0.2005 0.1885 0.1925 0.1955 0.1825 0.2 0.1935 0.187 0.169 0.204 0.1895 0.168 0.2105 0.1935 0.199 0.1985 0.1925 0.19 0.1765 0.1795 0.1975 0.213 0.18 0.172 0.202 0.178 0.2065 0.1875 0.193 0.183 0.182 0.2125 0.1985 0.1925 0.1765 0.1765 0.172 0.197 0.1885 0.179 0.1905 0.183 0.1955 0.1965 0.195 0.178 0.1885 0.1835 0.205 0.1935 0.1825 0.1905 0.1745 0.1835 0.2035 0.2015 0.171 0.1835 0.1845 0.1715 0.1835 0.2015 0.171 0.1935 0.192 0.2015 0.2055 0.1905 0.1925 0.1845 0.167 0.18 0.197 0.1885 0.201 0.191 0.1915 0.178 0.175 0.183 0.1945 0.2 0.1955 0.186 0.181 0.185 0.1835 0.1665 0.1935 0.1655 0.1965 0.185 0.1875 0.191 0.194 0.188 0.18 0.185 0.171 0.192 0.179 0.1925 0.186 0.1855 0.199 0.181 0.195 0.1955 0.218 0.1775 0.192 0.1875 0.213 0.1775 0.1945 0.1705 0.212 0.1955 0.192 0.1785 0.1975 0.199 0.19 0.188 0.1935 0.1965 0.201 0.2055 0.187 0.196 0.1885 0.196 0.2045 0.2035 0.1965 0.187 0.195 0.1745 0.155 0.1795 0.1735 0.1985 0.1985 0.198 0.213 0.17 0.1795 0.179 0.203 0.1865 0.2005 0.1915 0.189 0.189 0.1875 0.196 0.2035 0.1845 0.186 0.1965 0.182 0.17 0.206 0.174 0.21 0.2015 0.203 0.188 0.181 0.1895 0.1935 0.19 0.18 0.1795 0.1855 0.187 0.169 0.1755 0.1825 0.1935 0.1795 0.191 0.171 0.1975 0.1795 0.185 0.1865 0.17 0.169 0.177 0.192 0.1805 0.18 0.1765 0.19 0.1925 0.201 0.188 0.1805 0.1965 0.1935 0.1755 0.184 0.189 0.1795 0.1785 0.189 0.1695 0.194 0.1875 0.179 0.191 0.2075 0.1715 0.186 0.183 0.1895 0.1725 0.1995 0.184 0.194 0.213 0.191 0.196 0.203 0.2095 0.198 0.186 0.1825 0.189 0.1795 0.2075 0.1725 0.192 0.2035 0.1825 0.1845 0.1815 0.1825 0.182 0.1705 0.1825 0.2125 0.178 0.205 0.185 0.183 0.1845 0.1745 0.1945 0.184 0.196 0.1685 0.198 0.1805 0.1985 0.2085 0.1755 0.196 0.1745 0.1925 0.1795 0.1735 0.1855 0.193 0.1955 0.1985 0.1945 0.1785 0.183 0.185 0.1875 0.2005 0.198 0.186 0.1815 0.183 0.1935 0.198 0.1895 0.203 0.1765 0.189 0.187 0.191 0.1875 0.177 0.209 0.1705 0.1895 0.172 0.18 0.188 0.177 0.2035 0.1695 0.205 0.193 0.186 0.1935 0.188 0.183 0.19 0.1885 0.1945 0.2075 0.1845 0.196 0.1935 0.177 0.1885 0.19 0.1745 0.2125 0.18 0.1885 0.1925 0.183 0.185 0.1905 0.193 0.203 0.1785 0.1905 0.1735 0.1985 0.183 0.2055 0.185 0.1845 0.1935 0.188 0.191 0.186 0.1695 0.18 0.1935 0.1985 0.1955 0.195 0.2035 0.1945 0.1885 0.1855 0.184 0.1965 0.19 0.18 0.1725 0.1665 0.2015 0.201 0.1945 0.192 0.183 0.175 0.1845 0.208 0.1865 0.189 0.18 0.1915 0.1855 0.184 0.1735 0.1855 0.194 0.182 0.187 0.197 0.182 0.2005 0.1885 0.174 0.2015 0.205 0.179 0.1975 0.192 0.202 0.1695 0.193 0.185 0.2045 0.2005 0.186 0.1735 0.221 0.188 0.1655 0.199 0.168 0.1785 0.169 0.1865 0.1865 0.205 0.1615 0.188 0.1755 0.188 0.183 0.1875 0.18 0.1845 0.1625 0.1875 0.1835 0.192 0.1895 0.1975 0.182 0.1855 0.162 0.1905 0.2075 0.2065 0.185 0.186 0.197 0.1785 0.1955 0.1835 0.195 0.1815 ];
% latency change    = 0.00222405
% throughput change = 0.0622067
I am thread 0
I am thread 1
0%=================================
% Average latency = 116.543
% Accepted packets = 0.166333 at node 310 (avg = 0.192133)
lat(3) = 116.543;
bins = [ 0 ...999];
freq = [ 0 2 2150 230 21 5 0 0 0 0 0 3 13551 2685 435 63 8 1 1 0 0 0 0 0 0 0 0 0 0 0 0 0 0 0 0 0 0 0 0 0 0 0 0 0 0 0 0 0 0 0 0 0 0 0 0 0 0 0 0 0 0 0 0 0 0 0 0 0 0 0 0 0 0 0 0 0 0 0 0 0 0 0 0 0 0 0 0 0 0 0 0 0 0 0 0 0 0 0 0 0 0 1 7555 1458 236 29 5 0 0 0 0 18 92289 28880 6005 1121 190 25 3 1 0 56 278104 129533 34457 7636 1556 293 57 9 4 1 0 0 0 0 0 0 0 0 0 0 0 0 0 0 0 0 0 0 0 0 0 0 0 0 0 0 0 0 0 0 0 0 0 0 0 0 0 0 0 0 0 0 0 0 0 0 0 0 0 0 0 0 0 0 0 0 0 0 0 0 0 0 0 0 0 0 0 0 0 0 0 0 0 0 0 0 0 0 0 0 0 0 0 0 0 0 0 0 0 0 0 0 0 0 0 0 0 0 0 0 0 0 0 0 0 0 0 0 0 0 0 0 0 0 0 0 0 0 0 0 0 0 0 0 0 0 0 0 0 0 0 0 0 0 0 0 0 0 0 0 0 0 0 0 0 0 0 0 0 0 0 0 0 0 0 0 0 0 0 0 0 0 0 0 0 0 0 0 0 0 0 0 0 0 0 0 0 0 0 0 0 0 0 0 0 0 0 0 0 0 0 0 0 0 0 0 0 0 0 0 0 0 0 0 0 0 0 0 0 0 0 0 0 0 0 0 0 0 0 0 0 0 0 0 0 0 0 0 0 0 0 0 0 0 0 0 0 0 0 0 0 0 0 0 0 0 0 0 0 0 0 0 0 0 0 0 0 0 0 0 0 0 0 0 0 0 0 0 0 0 0 0 0 0 0 0 0 0 0 0 0 0 0 0 0 0 0 0 0 0 0 0 0 0 0 0 0 0 0 0 0 0 0 0 0 0 0 0 0 0 0 0 0 0 0 0 0 0 0 0 0 0 0 0 0 0 0 0 0 0 0 0 0 0 0 0 0 0 0 0 0 0 0 0 0 0 0 0 0 0 0 0 0 0 0 0 0 0 0 0 0 0 0 0 0 0 0 0 0 0 0 0 0 0 0 0 0 0 0 0 0 0 0 0 0 0 0 0 0 0 0 0 0 0 0 0 0 0 0 0 0 0 0 0 0 0 0 0 0 0 0 0 0 0 0 0 0 0 0 0 0 0 0 0 0 0 0 0 0 0 0 0 0 0 0 0 0 0 0 0 0 0 0 0 0 0 0 0 0 0 0 0 0 0 0 0 0 0 0 0 0 0 0 0 0 0 0 0 0 0 0 0 0 0 0 0 0 0 0 0 0 0 0 0 0 0 0 0 0 0 0 0 0 0 0 0 0 0 0 0 0 0 0 0 0 0 0 0 0 0 0 0 0 0 0 0 0 0 0 0 0 0 0 0 0 0 0 0 0 0 0 0 0 0 0 0 0 0 0 0 0 0 0 0 0 0 0 0 0 0 0 0 0 0 0 0 0 0 0 0 0 0 0 0 0 0 0 0 0 0 0 0 0 0 0 0 0 0 0 0 0 0 0 0 0 0 0 0 0 0 0 0 0 0 0 0 0 0 0 0 0 0 0 0 0 0 0 0 0 0 0 0 0 0 0 0 0 0 0 0 0 0 0 0 0 0 0 0 0 0 0 0 0 0 0 0 0 0 0 0 0 0 0 0 0 0 0 0 0 0 0 0 0 0 0 0 0 0 0 0 0 0 0 0 0 0 0 0 0 0 0 0 0 0 0 0 0 0 0 0 0 0 0 0 0 0 0 0 0 0 0 0 0 0 0 0 0 0 0 0 0 0 0 0 0 0 0 0 0 0 0 0 0 0 0 0 0 0 0 0 0 0 0 0 0 0 0 0 0 0 0 0 0 0 0 0 0 0 0 0 0 0 0 0 0 0 0 0 0 0 0 0 0 0 0 0 0 0 0 0 0 0 0 0 0 0 0 0 0 0 0 0 0 0 0 0 0 0 0 0 0 0 0 0 0 0 0 0 0 0 0 0 0 0 0 0 0 0 0 0 0 0 0 0 0 0 0 0 0 0 0 0 0 0 0 0 0 0 0 0 0 0 0 0 0 0 0 0 0 0 0 0 0 0 0 0 0 0 0 0 0 0 0 0 0 0 0 0 0 0 0 0 0 0 0 0 0 0 0 0 0 0 0 0 0 0 0 0 ];
thru(3,:) = [ 0.188667 0.191 0.195667 0.191 0.2 0.198333 0.183 0.197667 0.190667 0.191 0.199667 0.197667 0.198667 0.2 0.190667 0.179333 0.185 0.192 0.188667 0.185 0.191 0.185333 0.190667 0.188333 0.180333 0.191333 0.199 0.206 0.212333 0.187333 0.202333 0.180667 0.203 0.189667 0.203333 0.182 0.187333 0.196667 0.191 0.201667 0.194 0.182 0.172333 0.18 0.188333 0.185333 0.187333 0.186333 0.193333 0.201 0.188333 0.187 0.181333 0.178667 0.178333 0.185333 0.197 0.191667 0.214333 0.189 0.171333 0.201333 0.199667 0.196 0.204 0.201333 0.187333 0.188667 0.195667 0.205333 0.186 0.203 0.18 0.191333 0.189 0.207 0.196333 0.186333 0.181667 0.195667 0.198333 0.195 0.197667 0.197333 0.207667 0.194667 0.194667 0.185333 0.188667 0.184667 0.192333 0.185333 0.199667 0.196 0.190667 0.201667 0.191 0.196 0.184 0.191333 0.205333 0.187333 0.184333 0.190333 0.192 0.206333 0.206333 0.180333 0.186667 0.199 0.187333 0.196 0.198 0.186667 0.189667 0.201 0.2 0.180333 0.186667 0.198 0.177667 0.181333 0.183 0.194 0.192667 0.183667 0.188 0.197667 0.196667 0.178 0.193333 0.19 0.189667 0.183 0.212667 0.191333 0.201 0.189333 0.18 0.179333 0.179 0.192667 0.185667 0.202 0.194333 0.197667 0.193 0.197667 0.191667 0.192333 0.181333 0.178 0.194 0.192 0.197 0.191667 0.195667 0.188667 0.199333 0.193667 0.205333 0.175 0.192 0.192333 0.191 0.183 0.194333 0.201333 0.202667 0.193667 0.196667 0.180667 0.191667 0.195333 0.187 0.196 0.178667 0.194667 0.203333 0.216 0.197667 0.183 0.205333 0.177667 0.182 0.195667 0.209 0.192333 0.197 0.191667 0.194 0.180667 0.180333 0.197 0.189333 0.198333 0.192333 0.194 0.191667 0.209667 0.194333 0.173 0.175667 0.203667 0.193667 0.177667 0.194 0.202667 0.183333 0.184333 0.198667 0.196667 0.187 0.181667 0.192333 0.198 0.198 0.196667 0.19 0.193667 0.188 0.207 0.194 0.198333 0.202 0.217333 0.188 0.189667 0.199 0.184 0.207333 0.195333 0.201667 0.182333 0.195667 0.195 0.188 0.187333 0.176 0.187 0.191 0.201 0.190333 0.211667 0.197 0.194667 0.169333 0.196333 0.181667 0.181333 0.184 0.202333 0.199 0.180333 0.190667 0.184333 0.184 0.191 0.185333 0.19 0.201333 0.197 0.179667 0.215 0.178667 0.185667 0.184 0.196 0.192 0.192 0.200667 0.195333 0.190333 0.191 0.175 0.182667 0.208333 0.184 0.197 0.186 0.188667 0.193 0.187 0.196667 0.185333 0.17 0.202 0.182 0.190333 0.185667 0.195667 0.173667 0.198333 0.193 0.201 0.189333 0.182667 0.182333 0.202667 0.187667 0.194 0.194 0.182667 0.19 0.193333 0.194333 0.197667 0.181667 0.195333 0.193667 0.166333 0.197333 0.198333 0.195667 0.195 0.179667 0.186667 0.189 0.204667 0.191333 0.209 0.181667 0.183 0.194 0.188667 0.202333 0.189667 0.189333 0.199 0.181 0.199 0.191667 0.2 0.201 0.193667 0.188667 0.178667 0.201333 0.188667 0.189 0.182667 0.185333 0.199333 0.184 0.182667 0.207 0.179667 0.201333 0.184 0.176 0.193333 0.195 0.195333 0.176667 0.202333 0.174667 0.180333 0.183333 0.197 0.173333 0.198 0.188333 0.202333 0.186333 0.197667 0.190333 0.185 0.188667 0.192 0.192333 0.182667 0.195 0.191667 0.217 0.201 0.195 0.183667 0.194667 0.181 0.205667 0.180333 0.189 0.196333 0.186667 0.201 0.198667 0.200667 0.199667 0.181333 0.201667 0.171 0.188 0.182 0.19 0.191333 0.204 0.183 0.207667 0.184 0.194 0.196 0.206667 0.191333 0.193 0.190333 0.189667 0.194 0.192667 0.198667 0.188667 0.188 0.191 0.189667 0.197333 0.183333 0.178333 0.207667 0.210333 0.207 0.186333 0.190667 0.196 0.183 0.190667 0.177333 0.188667 0.197333 0.186333 0.177 0.194333 0.181 0.191333 0.188333 0.189333 0.192333 0.19 0.208667 0.191 0.186333 0.200667 0.182667 0.183 0.194667 0.18 0.2 0.189667 0.194333 0.199667 0.192667 0.193667 0.198667 0.175667 0.184 0.182 0.194 0.213667 0.195667 0.185333 0.181 0.188 0.201333 0.207333 0.197333 0.179 0.181333 0.189667 0.189 0.201667 0.189667 0.194333 0.191 0.195 0.194333 0.187 0.202667 0.188333 0.197333 0.181667 0.189333 0.205667 0.190333 0.184667 0.185333 0.172333 0.204 0.192667 0.204333 0.188 0.193667 0.189667 0.185667 0.196667 0.191333 0.199333 0.190667 0.188667 0.174 0.184667 0.200667 0.207 0.203667 0.203333 0.182 0.195667 0.198333 0.193 0.188333 0.204333 0.192 0.194333 0.186333 0.193333 0.203667 0.169667 0.201667 0.199333 0.196667 0.174667 0.183 0.196 0.197333 0.200333 0.189333 0.198333 0.218 0.18 0.201 0.191667 0.187667 0.213333 0.171 0.184333 0.194333 0.187 0.198333 0.202 0.200333 0.188667 0.191 0.21 0.182333 0.190333 0.186333 0.182 0.199 0.194333 0.171667 0.199333 0.178333 0.2 0.187667 0.210667 0.210333 0.197667 0.200667 0.182333 0.184333 0.190333 0.208667 0.181 0.187667 0.2 0.186667 0.193 0.181 0.197667 0.198667 0.184333 0.174333 0.189667 0.190667 0.188667 0.18 0.204333 0.195667 0.196 0.188333 0.192333 0.186667 0.195 0.201667 0.195333 0.197667 0.197 0.185333 0.198333 0.178333 0.198333 0.216667 0.179667 0.185667 0.179 0.191333 0.187333 0.189333 0.195333 0.193667 0.182333 0.197333 0.185667 0.182333 0.185 0.204333 0.199333 0.198667 0.192667 0.202 0.189 0.188 0.203 0.195667 0.189 0.185333 0.19 0.203333 0.193333 0.209333 0.199 0.194667 0.179333 0.176333 0.196333 0.204667 0.185333 0.207 0.188 0.193333 0.184333 0.194 0.201667 0.190667 0.191667 0.193667 0.205667 0.194 0.189667 0.198 0.200667 0.187667 0.176 0.205 0.183667 0.179333 0.206 0.197 0.206667 0.199 0.198333 0.191333 0.174333 0.189 0.194667 0.221333 0.189 0.175 0.190667 0.175667 0.203667 0.193667 0.198 0.187667 0.182667 0.213667 0.200667 0.189333 0.182 0.183 0.178667 0.192 0.193333 0.193333 0.187333 0.194667 0.195333 0.195 0.200333 0.188 0.194667 0.198 0.199 0.200333 0.180667 0.202 0.179667 0.192 0.200667 0.195333 0.182667 0.194333 0.188667 0.187333 0.192 0.201667 0.179667 0.193667 0.204333 0.197333 0.211667 0.202333 0.197333 0.194333 0.177 0.192333 0.199667 0.186333 0.212333 0.190333 0.191333 0.187333 0.189333 0.185333 0.200333 0.195333 0.200333 0.187 0.187667 0.183 0.185333 0.182 0.204667 0.179667 0.202667 0.187333 0.201667 0.191333 0.196667 0.189667 0.188 0.193333 0.183 0.197333 0.182 0.192333 0.190333 0.188333 0.202667 0.176333 0.187667 0.201333 0.206333 0.185 0.198333 0.189 0.208667 0.182333 0.191333 0.189333 0.206 0.203 0.196667 0.184667 0.193333 0.197667 0.184333 0.188667 0.196667 0.201 0.192 0.197667 0.191667 0.198333 0.195333 0.194667 0.2 0.196333 0.192667 0.195 0.197667 0.184333 0.182333 0.191 0.177333 0.197 0.201333 0.190333 0.213 0.184333 0.186 0.187 0.201333 0.191 0.201667 0.192333 0.196667 0.193 0.199333 0.199 0.205667 0.189 0.194667 0.193333 0.188667 0.182 0.210667 0.178333 0.211667 0.200667 0.197 0.186333 0.188 0.193333 0.190667 0.190667 0.184 0.186 0.188 0.188667 0.167667 0.191667 0.194333 0.184333 0.198 0.198333 0.175667 0.196667 0.186667 0.189333 0.196333 0.18 0.188 0.188333 0.192333 0.172667 0.174667 0.183 0.193667 0.193333 0.194333 0.192667 0.189 0.192333 0.197667 0.192 0.191333 0.194667 0.189333 0.195 0.189667 0.181667 0.199 0.202667 0.186 0.198 0.202667 0.182333 0.195667 0.19 0.195333 0.188667 0.2 0.194333 0.194 0.211 0.200667 0.197333 0.196333 0.209667 0.205333 0.197 0.189333 0.191 0.190667 0.202 0.190333 0.196333 0.197333 0.190333 0.197667 0.187333 0.192 0.180333 0.171667 0.199333 0.215 0.184333 0.195667 0.19 0.191333 0.197 0.185667 0.198667 0.193667 0.199333 0.178333 0.195667 0.18 0.192667 0.196667 0.187667 0.195333 0.180333 0.193667 0.183 0.177333 0.191667 0.188667 0.192667 0.203333 0.202333 0.186667 0.176667 0.179 0.189333 0.205 0.205 0.199333 0.196333 0.194333 0.193 0.199333 0.183667 0.2 0.191667 0.199667 0.193333 0.195333 0.19 0.189333 0.203 0.188333 0.197 0.186333 0.19 0.197333 0.172667 0.199333 0.174667 0.203 0.194 0.193 0.193 0.188 0.194333 0.189 0.197 0.196667 0.208333 0.181333 0.200667 0.193 0.176667 0.188 0.202667 0.186667 0.210667 0.184 0.203333 0.192333 0.191667 0.193667 0.188333 0.194 0.202667 0.195333 0.192667 0.183333 0.188667 0.186667 0.203 0.193333 0.188667 0.192 0.194 0.197 0.193333 0.188667 0.193667 0.192333 0.196 0.196333 0.197333 0.209 0.199667 0.190667 0.196667 0.185 0.192 0.203667 0.176667 0.178333 0.184333 0.208 0.198 0.189667 0.202667 0.194333 0.179667 0.190667 0.206 0.193667 0.194667 0.195 0.190333 0.186 0.186 0.183667 0.184 0.192333 0.190333 0.189667 0.198667 0.174667 0.201333 0.190333 0.177 0.201333 0.204 0.191 0.200667 0.201667 0.207 0.190333 0.199 0.189 0.198333 0.194 0.180333 0.181333 0.213 0.192 0.177667 0.197333 0.179667 0.194667 0.176667 0.189667 0.186667 0.201667 0.179667 0.19 0.187 0.190667 0.193667 0.190667 0.183333 0.191333 0.173333 0.19 0.188667 0.19 0.200667 0.199 0.185 0.185 0.179 0.195667 0.200667 0.202 0.191333 0.191333 0.197333 0.183 0.194 0.186333 0.193333 0.182667 ];
% latency change    = 0.000359397
% throughput change = 0.0190364
% Warmed up ...Time used is 3000 cycles
I am thread 0
I am thread 1
1%=================================
% Average latency = 116.208
% Accepted packets = 0.157 at node 72 (avg = 0.200133)
lat(4) = 116.208;
bins = [ 0 ...999];
freq = [ 0 1 689 75 14 0 0 0 0 0 0 0 4485 967 153 19 6 0 0 0 0 0 0 0 0 0 0 0 0 0 0 0 0 0 0 0 0 0 0 0 0 0 0 0 0 0 0 0 0 0 0 0 0 0 0 0 0 0 0 0 0 0 0 0 0 0 0 0 0 0 0 0 0 0 0 0 0 0 0 0 0 0 0 0 0 0 0 0 0 0 0 0 0 0 0 0 0 0 0 0 0 0 2302 439 61 8 1 0 0 0 0 5 28585 9068 1901 332 51 9 3 0 0 21 85100 39192 10590 2301 471 78 13 2 0 0 0 0 0 0 0 0 0 0 0 0 0 0 0 0 0 0 0 0 0 0 0 0 0 0 0 0 0 0 0 0 0 0 0 0 0 0 0 0 0 0 0 0 0 0 0 0 0 0 0 0 0 0 0 0 0 0 0 0 0 0 0 0 0 0 0 0 0 0 0 0 0 0 0 0 0 0 0 0 0 0 0 0 0 0 0 0 0 0 0 0 0 0 0 0 0 0 0 0 0 0 0 0 0 0 0 0 0 0 0 0 0 0 0 0 0 0 0 0 0 0 0 0 0 0 0 0 0 0 0 0 0 0 0 0 0 0 0 0 0 0 0 0 0 0 0 0 0 0 0 0 0 0 0 0 0 0 0 0 0 0 0 0 0 0 0 0 0 0 0 0 0 0 0 0 0 0 0 0 0 0 0 0 0 0 0 0 0 0 0 0 0 0 0 0 0 0 0 0 0 0 0 0 0 0 0 0 0 0 0 0 0 0 0 0 0 0 0 0 0 0 0 0 0 0 0 0 0 0 0 0 0 0 0 0 0 0 0 0 0 0 0 0 0 0 0 0 0 0 0 0 0 0 0 0 0 0 0 0 0 0 0 0 0 0 0 0 0 0 0 0 0 0 0 0 0 0 0 0 0 0 0 0 0 0 0 0 0 0 0 0 0 0 0 0 0 0 0 0 0 0 0 0 0 0 0 0 0 0 0 0 0 0 0 0 0 0 0 0 0 0 0 0 0 0 0 0 0 0 0 0 0 0 0 0 0 0 0 0 0 0 0 0 0 0 0 0 0 0 0 0 0 0 0 0 0 0 0 0 0 0 0 0 0 0 0 0 0 0 0 0 0 0 0 0 0 0 0 0 0 0 0 0 0 0 0 0 0 0 0 0 0 0 0 0 0 0 0 0 0 0 0 0 0 0 0 0 0 0 0 0 0 0 0 0 0 0 0 0 0 0 0 0 0 0 0 0 0 0 0 0 0 0 0 0 0 0 0 0 0 0 0 0 0 0 0 0 0 0 0 0 0 0 0 0 0 0 0 0 0 0 0 0 0 0 0 0 0 0 0 0 0 0 0 0 0 0 0 0 0 0 0 0 0 0 0 0 0 0 0 0 0 0 0 0 0 0 0 0 0 0 0 0 0 0 0 0 0 0 0 0 0 0 0 0 0 0 0 0 0 0 0 0 0 0 0 0 0 0 0 0 0 0 0 0 0 0 0 0 0 0 0 0 0 0 0 0 0 0 0 0 0 0 0 0 0 0 0 0 0 0 0 0 0 0 0 0 0 0 0 0 0 0 0 0 0 0 0 0 0 0 0 0 0 0 0 0 0 0 0 0 0 0 0 0 0 0 0 0 0 0 0 0 0 0 0 0 0 0 0 0 0 0 0 0 0 0 0 0 0 0 0 0 0 0 0 0 0 0 0 0 0 0 0 0 0 0 0 0 0 0 0 0 0 0 0 0 0 0 0 0 0 0 0 0 0 0 0 0 0 0 0 0 0 0 0 0 0 0 0 0 0 0 0 0 0 0 0 0 0 0 0 0 0 0 0 0 0 0 0 0 0 0 0 0 0 0 0 0 0 0 0 0 0 0 0 0 0 0 0 0 0 0 0 0 0 0 0 0 0 0 0 0 0 0 0 0 0 0 0 0 0 0 0 0 0 0 0 0 0 0 0 0 0 0 0 0 0 0 0 0 0 0 0 0 0 0 0 0 0 0 0 0 0 0 0 0 0 0 0 0 0 0 0 0 0 0 0 0 0 0 0 0 0 0 0 0 0 0 0 0 0 0 0 0 0 0 0 0 0 0 0 0 0 0 0 0 0 0 0 0 0 0 0 0 0 0 0 0 0 0 0 0 0 0 0 0 0 0 0 0 0 0 0 0 0 0 0 0 0 0 0 0 0 0 0 0 0 0 0 0 0 0 0 0 0 0 0 0 0 0 0 0 0 0 0 0 0 0 ];
thru(4,:) = [ 0.18 0.2 0.198 0.231 0.192 0.212 0.21 0.201 0.191 0.198 0.193 0.195 0.19 0.181 0.226 0.178 0.189 0.224 0.185 0.209 0.201 0.209 0.205 0.187 0.203 0.206 0.185 0.213 0.165 0.182 0.202 0.185 0.216 0.166 0.185 0.174 0.205 0.217 0.226 0.221 0.206 0.21 0.196 0.206 0.21 0.216 0.195 0.181 0.175 0.181 0.216 0.196 0.207 0.186 0.182 0.222 0.193 0.206 0.205 0.211 0.232 0.192 0.206 0.197 0.197 0.21 0.212 0.213 0.238 0.195 0.2 0.198 0.157 0.221 0.211 0.214 0.206 0.199 0.184 0.221 0.221 0.23 0.192 0.214 0.199 0.198 0.213 0.214 0.217 0.176 0.206 0.194 0.227 0.196 0.191 0.225 0.164 0.21 0.172 0.2 0.197 0.187 0.21 0.203 0.19 0.202 0.187 0.225 0.199 0.169 0.195 0.195 0.179 0.202 0.202 0.222 0.192 0.192 0.2 0.191 0.201 0.214 0.198 0.209 0.189 0.168 0.198 0.195 0.228 0.196 0.19 0.193 0.179 0.214 0.213 0.186 0.195 0.175 0.19 0.191 0.211 0.215 0.182 0.196 0.19 0.212 0.197 0.189 0.201 0.216 0.206 0.202 0.2 0.186 0.198 0.19 0.223 0.198 0.208 0.203 0.18 0.205 0.227 0.174 0.189 0.189 0.217 0.2 0.208 0.204 0.246 0.182 0.201 0.2 0.204 0.195 0.21 0.229 0.214 0.192 0.2 0.162 0.2 0.2 0.226 0.191 0.197 0.222 0.219 0.196 0.202 0.203 0.206 0.185 0.23 0.231 0.209 0.19 0.213 0.22 0.204 0.217 0.205 0.203 0.214 0.214 0.188 0.188 0.207 0.158 0.209 0.239 0.207 0.202 0.208 0.19 0.208 0.198 0.198 0.198 0.196 0.193 0.22 0.195 0.212 0.203 0.187 0.196 0.205 0.217 0.195 0.185 0.207 0.211 0.18 0.188 0.21 0.204 0.179 0.213 0.191 0.183 0.226 0.239 0.183 0.206 0.181 0.201 0.187 0.187 0.214 0.191 0.215 0.205 0.215 0.203 0.197 0.205 0.212 0.176 0.205 0.226 0.211 0.168 0.2 0.186 0.188 0.201 0.216 0.177 0.212 0.198 0.193 0.173 0.22 0.199 0.204 0.193 0.223 0.201 0.182 0.223 0.181 0.193 0.175 0.19 0.193 0.242 0.199 0.19 0.166 0.211 0.198 0.21 0.168 0.17 0.23 0.192 0.197 0.2 0.183 0.2 0.228 0.2 0.166 0.202 0.242 0.19 0.211 0.218 0.197 0.226 0.209 0.187 0.183 0.209 0.203 0.196 0.217 0.2 0.195 0.187 0.216 0.212 0.198 0.223 0.208 0.21 0.194 0.206 0.187 0.207 0.213 0.204 0.185 0.204 0.219 0.196 0.189 0.22 0.196 0.191 0.189 0.214 0.187 0.22 0.215 0.189 0.215 0.198 0.219 0.213 0.19 0.213 0.188 0.175 0.204 0.198 0.216 0.216 0.195 0.217 0.185 0.224 0.203 0.188 0.184 0.195 0.165 0.195 0.183 0.186 0.219 0.214 0.182 0.222 0.181 0.215 0.218 0.215 0.195 0.18 0.203 0.195 0.23 0.219 0.202 0.233 0.201 0.214 0.215 0.192 0.176 0.164 0.23 0.193 0.179 0.204 0.208 0.19 0.203 0.196 0.177 0.228 0.189 0.207 0.222 0.201 0.206 0.203 0.17 0.206 0.193 0.194 0.207 0.212 0.177 0.183 0.201 0.189 0.213 0.186 0.227 0.173 0.183 0.178 0.203 0.203 0.184 0.178 0.193 0.176 0.214 0.21 0.215 0.22 0.197 0.195 0.207 0.223 0.218 0.203 0.178 0.18 0.192 0.193 0.211 0.178 0.198 0.235 0.2 0.182 0.189 0.222 0.217 0.21 0.209 0.189 0.206 0.218 0.206 0.213 0.188 0.221 0.201 0.194 0.176 0.224 0.199 0.182 0.23 0.201 0.199 0.205 0.188 0.175 0.19 0.206 0.175 0.224 0.229 0.215 0.213 0.194 0.204 0.202 0.161 0.187 0.209 0.206 0.179 0.191 0.207 0.195 0.183 0.223 0.198 0.208 0.196 0.212 0.205 0.201 0.193 0.161 0.203 0.197 0.166 0.193 0.18 0.231 0.18 0.187 0.208 0.219 0.212 0.175 0.2 0.18 0.207 0.207 0.21 0.217 0.188 0.19 0.193 0.17 0.186 0.161 0.203 0.209 0.23 0.181 0.187 0.184 0.187 0.184 0.187 0.193 0.247 0.207 0.197 0.222 0.2 0.202 0.203 0.189 0.206 0.194 0.171 0.181 0.221 0.22 0.207 0.206 0.212 0.214 0.215 0.185 0.205 0.201 0.21 0.224 0.197 0.174 0.184 0.2 0.198 0.188 0.176 0.188 0.183 0.193 0.192 0.203 0.192 0.204 0.186 0.187 0.2 0.21 0.218 0.191 0.188 0.207 0.218 0.2 0.187 0.19 0.213 0.192 0.184 0.187 0.188 0.178 0.182 0.187 0.238 0.213 0.21 0.201 0.18 0.206 0.17 0.171 0.195 0.206 0.194 0.215 0.193 0.215 0.217 0.208 0.177 0.191 0.198 0.199 0.185 0.211 0.205 0.242 0.191 0.195 0.241 0.216 0.209 0.198 0.196 0.186 0.208 0.21 0.213 0.228 0.215 0.193 0.168 0.196 0.227 0.216 0.178 0.163 0.194 0.202 0.202 0.194 0.211 0.241 0.214 0.213 0.183 0.219 0.192 0.231 0.196 0.19 0.19 0.185 0.202 0.208 0.196 0.215 0.217 0.171 0.175 0.205 0.197 0.214 0.244 0.2 0.228 0.191 0.195 0.213 0.196 0.211 0.203 0.185 0.211 0.216 0.194 0.201 0.215 0.195 0.215 0.197 0.197 0.208 0.195 0.213 0.188 0.22 0.199 0.21 0.184 0.182 0.203 0.192 0.192 0.191 0.189 0.191 0.201 0.182 0.216 0.208 0.184 0.184 0.2 0.184 0.19 0.169 0.172 0.177 0.2 0.227 0.208 0.221 0.202 0.201 0.194 0.211 0.214 0.205 0.188 0.218 0.204 0.195 0.181 0.223 0.232 0.198 0.2 0.202 0.216 0.202 0.214 0.203 0.182 0.198 0.234 0.203 0.165 0.204 0.208 0.194 0.203 0.192 0.225 0.197 0.222 0.172 0.209 0.214 0.171 0.231 0.2 0.192 0.216 0.213 0.203 0.209 0.226 0.209 0.194 0.197 0.194 0.173 0.206 0.195 0.193 0.21 0.214 0.215 0.173 0.184 0.172 0.219 0.198 0.217 0.209 0.187 0.22 0.168 0.192 0.21 0.233 0.221 0.203 0.194 0.218 0.218 0.206 0.213 0.204 0.209 0.194 0.225 0.189 0.206 0.204 0.181 0.206 0.17 0.211 0.182 0.172 0.165 0.203 0.217 0.186 0.207 0.19 0.187 0.227 0.185 0.196 0.198 0.191 0.188 0.195 0.232 0.182 0.197 0.218 0.18 0.185 0.207 0.229 0.222 0.19 0.175 0.204 0.203 0.201 0.221 0.198 0.182 0.185 0.213 0.194 0.209 0.23 0.173 0.218 0.19 0.222 0.211 0.177 0.208 0.17 0.179 0.214 0.198 0.195 0.207 0.202 0.205 0.188 0.186 0.231 0.197 0.214 0.21 0.192 0.192 0.21 0.204 0.229 0.179 0.219 0.209 0.195 0.208 0.218 0.223 0.234 0.179 0.192 0.179 0.203 0.202 0.222 0.215 0.185 0.188 0.185 0.184 0.195 0.198 0.191 0.219 0.206 0.183 0.174 0.203 0.205 0.217 0.184 0.214 0.182 0.184 0.204 0.201 0.229 0.199 0.204 0.202 0.195 0.215 0.184 0.198 0.205 0.181 0.19 0.196 0.172 0.199 0.207 0.217 0.174 0.201 0.202 0.177 0.218 0.193 0.188 0.185 0.194 0.226 0.197 0.192 0.186 0.198 0.2 0.21 0.208 0.19 0.218 0.195 0.216 0.172 0.246 0.206 0.221 0.192 0.232 0.198 0.198 0.21 0.209 0.193 0.186 0.21 0.22 0.216 0.17 0.194 0.17 0.176 0.191 0.188 0.186 0.219 0.192 0.232 0.195 0.201 0.206 0.197 0.222 0.189 0.204 0.189 0.218 0.199 0.196 0.222 0.192 0.209 0.209 0.21 0.218 0.205 0.18 0.2 0.21 0.21 0.197 0.203 0.188 0.172 0.182 0.202 0.201 0.175 0.223 0.185 0.223 0.212 0.192 0.222 0.209 0.187 0.204 0.18 0.172 0.194 0.209 0.177 0.195 0.195 0.213 0.2 0.203 0.193 0.196 0.205 0.208 0.222 0.188 0.207 0.196 0.196 0.189 0.208 0.197 0.197 0.16 0.177 0.167 0.199 0.19 0.189 0.207 0.216 0.186 0.204 0.178 0.17 0.194 0.178 0.188 0.216 0.18 0.199 0.21 0.2 0.199 0.216 0.214 0.22 0.196 0.205 0.197 0.22 0.198 0.198 ];
% latency change    = 0.00288327
% throughput change = 0.0399719
I am thread 0
I am thread 1
1%=================================
% Average latency = 116.443
% Accepted packets = 0.1575 at node 1026 (avg = 0.199992)
lat(5) = 116.443;
bins = [ 0 ...999];
freq = [ 0 1 1433 160 23 0 0 0 0 0 0 1 8921 1892 316 41 6 0 0 0 0 0 0 0 0 0 0 0 0 0 0 0 0 0 0 0 0 0 0 0 0 0 0 0 0 0 0 0 0 0 0 0 0 0 0 0 0 0 0 0 0 0 0 0 0 0 0 0 0 0 0 0 0 0 0 0 0 0 0 0 0 0 0 0 0 0 0 0 0 0 0 0 0 0 0 0 0 0 0 0 0 0 4898 976 146 19 4 0 0 0 0 17 60802 19307 3960 696 117 19 3 1 0 41 181953 83894 22297 4829 990 175 39 6 2 1 0 0 0 0 0 0 0 0 0 0 0 0 0 0 0 0 0 0 0 0 0 0 0 0 0 0 0 0 0 0 0 0 0 0 0 0 0 0 0 0 0 0 0 0 0 0 0 0 0 0 0 0 0 0 0 0 0 0 0 0 0 0 0 0 0 0 0 0 0 0 0 0 0 0 0 0 0 0 0 0 0 0 0 0 0 0 0 0 0 0 0 0 0 0 0 0 0 0 0 0 0 0 0 0 0 0 0 0 0 0 0 0 0 0 0 0 0 0 0 0 0 0 0 0 0 0 0 0 0 0 0 0 0 0 0 0 0 0 0 0 0 0 0 0 0 0 0 0 0 0 0 0 0 0 0 0 0 0 0 0 0 0 0 0 0 0 0 0 0 0 0 0 0 0 0 0 0 0 0 0 0 0 0 0 0 0 0 0 0 0 0 0 0 0 0 0 0 0 0 0 0 0 0 0 0 0 0 0 0 0 0 0 0 0 0 0 0 0 0 0 0 0 0 0 0 0 0 0 0 0 0 0 0 0 0 0 0 0 0 0 0 0 0 0 0 0 0 0 0 0 0 0 0 0 0 0 0 0 0 0 0 0 0 0 0 0 0 0 0 0 0 0 0 0 0 0 0 0 0 0 0 0 0 0 0 0 0 0 0 0 0 0 0 0 0 0 0 0 0 0 0 0 0 0 0 0 0 0 0 0 0 0 0 0 0 0 0 0 0 0 0 0 0 0 0 0 0 0 0 0 0 0 0 0 0 0 0 0 0 0 0 0 0 0 0 0 0 0 0 0 0 0 0 0 0 0 0 0 0 0 0 0 0 0 0 0 0 0 0 0 0 0 0 0 0 0 0 0 0 0 0 0 0 0 0 0 0 0 0 0 0 0 0 0 0 0 0 0 0 0 0 0 0 0 0 0 0 0 0 0 0 0 0 0 0 0 0 0 0 0 0 0 0 0 0 0 0 0 0 0 0 0 0 0 0 0 0 0 0 0 0 0 0 0 0 0 0 0 0 0 0 0 0 0 0 0 0 0 0 0 0 0 0 0 0 0 0 0 0 0 0 0 0 0 0 0 0 0 0 0 0 0 0 0 0 0 0 0 0 0 0 0 0 0 0 0 0 0 0 0 0 0 0 0 0 0 0 0 0 0 0 0 0 0 0 0 0 0 0 0 0 0 0 0 0 0 0 0 0 0 0 0 0 0 0 0 0 0 0 0 0 0 0 0 0 0 0 0 0 0 0 0 0 0 0 0 0 0 0 0 0 0 0 0 0 0 0 0 0 0 0 0 0 0 0 0 0 0 0 0 0 0 0 0 0 0 0 0 0 0 0 0 0 0 0 0 0 0 0 0 0 0 0 0 0 0 0 0 0 0 0 0 0 0 0 0 0 0 0 0 0 0 0 0 0 0 0 0 0 0 0 0 0 0 0 0 0 0 0 0 0 0 0 0 0 0 0 0 0 0 0 0 0 0 0 0 0 0 0 0 0 0 0 0 0 0 0 0 0 0 0 0 0 0 0 0 0 0 0 0 0 0 0 0 0 0 0 0 0 0 0 0 0 0 0 0 0 0 0 0 0 0 0 0 0 0 0 0 0 0 0 0 0 0 0 0 0 0 0 0 0 0 0 0 0 0 0 0 0 0 0 0 0 0 0 0 0 0 0 0 0 0 0 0 0 0 0 0 0 0 0 0 0 0 0 0 0 0 0 0 0 0 0 0 0 0 0 0 0 0 0 0 0 0 0 0 0 0 0 0 0 0 0 0 0 0 0 0 0 0 0 0 0 0 0 0 0 0 0 0 0 0 0 0 0 0 0 0 0 0 0 0 0 0 0 0 0 0 0 0 0 0 0 0 0 0 0 0 0 0 0 0 0 0 0 0 0 0 0 0 0 0 0 0 0 0 0 0 0 0 0 0 0 0 0 0 0 0 0 0 0 0 0 0 0 0 0 0 ];
thru(5,:) = [ 0.183 0.2055 0.207 0.213 0.2035 0.2125 0.2015 0.201 0.192 0.2125 0.2075 0.1975 0.2 0.184 0.1975 0.1855 0.215 0.2065 0.189 0.211 0.195 0.214 0.2025 0.1875 0.212 0.205 0.1775 0.216 0.1855 0.196 0.2085 0.1925 0.23 0.1815 0.198 0.188 0.216 0.2015 0.217 0.213 0.2025 0.222 0.1925 0.202 0.1995 0.2055 0.224 0.174 0.178 0.194 0.2035 0.202 0.193 0.1955 0.185 0.2135 0.201 0.204 0.2115 0.199 0.1985 0.1985 0.198 0.206 0.2 0.21 0.21 0.2005 0.2185 0.202 0.2105 0.2 0.1835 0.209 0.205 0.203 0.1985 0.194 0.2005 0.2245 0.214 0.206 0.193 0.2065 0.2055 0.196 0.198 0.207 0.204 0.189 0.202 0.184 0.2135 0.186 0.1985 0.196 0.1705 0.198 0.189 0.2025 0.194 0.197 0.2035 0.1995 0.202 0.205 0.1785 0.2045 0.2175 0.185 0.2065 0.193 0.1945 0.1995 0.204 0.2135 0.196 0.195 0.1985 0.195 0.189 0.208 0.214 0.201 0.207 0.187 0.196 0.2085 0.228 0.195 0.191 0.1905 0.191 0.2035 0.202 0.188 0.208 0.1965 0.2015 0.1945 0.2145 0.2005 0.1845 0.1895 0.192 0.2155 0.208 0.1915 0.2045 0.2275 0.1915 0.2005 0.202 0.1855 0.185 0.194 0.214 0.205 0.2005 0.2045 0.186 0.2025 0.221 0.1825 0.194 0.1985 0.201 0.1945 0.1965 0.1975 0.2335 0.184 0.1985 0.212 0.1965 0.1955 0.201 0.21 0.207 0.2075 0.2015 0.1845 0.185 0.203 0.2225 0.1925 0.196 0.2195 0.214 0.1975 0.2065 0.216 0.208 0.188 0.223 0.2015 0.204 0.194 0.197 0.2115 0.197 0.2105 0.218 0.202 0.2055 0.1825 0.193 0.1895 0.2115 0.1825 0.212 0.209 0.2055 0.193 0.201 0.2085 0.201 0.1955 0.203 0.189 0.195 0.191 0.2145 0.1975 0.2 0.192 0.1855 0.193 0.1915 0.2075 0.1875 0.187 0.2045 0.215 0.1915 0.2015 0.206 0.1885 0.195 0.2125 0.199 0.199 0.204 0.22 0.192 0.196 0.1995 0.199 0.185 0.176 0.218 0.194 0.201 0.2045 0.205 0.186 0.1975 0.193 0.213 0.193 0.203 0.2305 0.208 0.191 0.2155 0.187 0.191 0.202 0.2085 0.1865 0.2075 0.1965 0.2045 0.194 0.2225 0.194 0.203 0.1805 0.225 0.191 0.1895 0.203 0.2015 0.193 0.18 0.1985 0.1965 0.2165 0.208 0.1835 0.185 0.203 0.1975 0.2065 0.201 0.1915 0.2125 0.1915 0.1925 0.192 0.2 0.199 0.203 0.2025 0.1825 0.208 0.2155 0.1985 0.205 0.2165 0.1975 0.2155 0.1995 0.1935 0.2 0.204 0.203 0.2015 0.209 0.2155 0.2015 0.1825 0.2195 0.1965 0.196 0.2135 0.1985 0.202 0.204 0.184 0.1985 0.211 0.211 0.1975 0.1895 0.2065 0.192 0.1895 0.184 0.2075 0.197 0.2025 0.1925 0.208 0.199 0.2035 0.2045 0.191 0.203 0.1995 0.213 0.209 0.191 0.2085 0.1745 0.1735 0.207 0.194 0.2105 0.213 0.1955 0.2065 0.188 0.195 0.209 0.1935 0.201 0.194 0.1745 0.2095 0.2035 0.205 0.206 0.21 0.2015 0.2245 0.1895 0.209 0.206 0.2155 0.187 0.1815 0.196 0.1945 0.2085 0.212 0.1985 0.226 0.199 0.194 0.193 0.204 0.188 0.1955 0.2295 0.201 0.189 0.206 0.22 0.203 0.1995 0.192 0.1825 0.216 0.19 0.211 0.2205 0.1855 0.209 0.207 0.184 0.2015 0.1945 0.1945 0.205 0.211 0.1735 0.1885 0.1965 0.194 0.206 0.1935 0.219 0.181 0.184 0.19 0.2145 0.2025 0.1985 0.2005 0.198 0.187 0.207 0.1975 0.196 0.216 0.21 0.222 0.1955 0.2015 0.2025 0.19 0.182 0.19 0.193 0.1915 0.205 0.1845 0.187 0.2155 0.197 0.1865 0.2055 0.1985 0.2105 0.21 0.2075 0.2025 0.2075 0.225 0.1855 0.199 0.1925 0.2155 0.1935 0.211 0.1815 0.202 0.2045 0.183 0.214 0.202 0.2065 0.1975 0.198 0.1885 0.186 0.2095 0.1775 0.2115 0.2035 0.2095 0.1975 0.1935 0.214 0.208 0.173 0.191 0.216 0.2 0.186 0.1955 0.203 0.19 0.188 0.2155 0.1905 0.1995 0.205 0.209 0.197 0.2125 0.202 0.1735 0.194 0.198 0.183 0.1845 0.1825 0.214 0.194 0.213 0.2105 0.2145 0.208 0.185 0.203 0.1985 0.2065 0.2015 0.2065 0.2155 0.1975 0.197 0.197 0.195 0.198 0.1805 0.203 0.1945 0.215 0.187 0.1885 0.1935 0.1935 0.1895 0.193 0.203 0.2185 0.205 0.204 0.1955 0.204 0.2015 0.2125 0.2105 0.214 0.212 0.1855 0.1835 0.199 0.2165 0.198 0.2065 0.204 0.2125 0.2175 0.194 0.2035 0.189 0.201 0.2365 0.1915 0.196 0.196 0.2035 0.197 0.195 0.181 0.199 0.1935 0.2065 0.197 0.206 0.1935 0.1935 0.1855 0.192 0.1905 0.2035 0.198 0.193 0.202 0.2055 0.21 0.1955 0.204 0.201 0.2115 0.209 0.1735 0.211 0.1865 0.184 0.191 0.193 0.214 0.217 0.1915 0.1945 0.185 0.197 0.181 0.186 0.199 0.195 0.191 0.2005 0.197 0.2045 0.209 0.1995 0.178 0.1895 0.205 0.185 0.192 0.206 0.191 0.2205 0.188 0.201 0.2205 0.202 0.209 0.2025 0.1905 0.1995 0.2025 0.2035 0.2075 0.212 0.201 0.1795 0.167 0.19 0.2095 0.2185 0.172 0.1725 0.195 0.214 0.1935 0.204 0.1865 0.213 0.213 0.2065 0.187 0.2065 0.1765 0.2135 0.1915 0.195 0.1855 0.2075 0.1965 0.202 0.208 0.204 0.2025 0.184 0.197 0.204 0.197 0.209 0.2265 0.2035 0.224 0.1905 0.2045 0.189 0.197 0.204 0.2015 0.197 0.2125 0.2195 0.2075 0.199 0.2015 0.1895 0.201 0.1995 0.2025 0.2085 0.1925 0.212 0.1965 0.2155 0.202 0.206 0.201 0.187 0.2005 0.182 0.195 0.1925 0.196 0.1825 0.1925 0.178 0.2055 0.2125 0.1975 0.205 0.203 0.1945 0.1975 0.196 0.1835 0.194 0.1915 0.21 0.203 0.2005 0.201 0.2005 0.1905 0.2055 0.2015 0.197 0.1935 0.2135 0.1905 0.2075 0.1915 0.215 0.2175 0.19 0.2005 0.195 0.193 0.197 0.203 0.196 0.191 0.198 0.209 0.225 0.182 0.2005 0.2 0.195 0.1985 0.2005 0.214 0.1995 0.216 0.181 0.2045 0.2135 0.17 0.216 0.2035 0.1945 0.192 0.1965 0.1915 0.203 0.206 0.214 0.1975 0.2015 0.202 0.1915 0.2095 0.1935 0.1855 0.192 0.213 0.205 0.1905 0.1925 0.194 0.218 0.2025 0.197 0.2085 0.1905 0.2085 0.1905 0.209 0.2085 0.2235 0.21 0.1965 0.1985 0.206 0.2115 0.202 0.2075 0.2025 0.198 0.2035 0.217 0.1975 0.1925 0.1985 0.2045 0.2105 0.1965 0.201 0.173 0.1955 0.187 0.2 0.211 0.1965 0.201 0.199 0.208 0.211 0.1825 0.19 0.1945 0.211 0.194 0.2085 0.221 0.185 0.2135 0.2075 0.197 0.197 0.207 0.222 0.2185 0.1895 0.1895 0.205 0.1995 0.205 0.2 0.192 0.196 0.1935 0.2135 0.187 0.1935 0.2145 0.1875 0.2135 0.202 0.205 0.1995 0.2005 0.2105 0.1875 0.194 0.201 0.201 0.1925 0.1975 0.201 0.205 0.215 0.212 0.2195 0.2015 0.215 0.196 0.1875 0.194 0.2035 0.1945 0.2215 0.1975 0.2115 0.2035 0.192 0.203 0.208 0.208 0.2095 0.1835 0.195 0.205 0.2025 0.2045 0.207 0.204 0.199 0.187 0.196 0.1825 0.207 0.2035 0.2025 0.205 0.1965 0.176 0.1905 0.198 0.205 0.198 0.191 0.2105 0.189 0.1925 0.1995 0.192 0.2115 0.1945 0.207 0.194 0.205 0.2115 0.177 0.2035 0.185 0.1915 0.1975 0.1885 0.1785 0.194 0.199 0.205 0.188 0.1995 0.221 0.1905 0.2055 0.188 0.1905 0.1935 0.197 0.228 0.2005 0.1995 0.187 0.192 0.206 0.212 0.2085 0.196 0.2255 0.187 0.217 0.1945 0.2105 0.212 0.209 0.1945 0.2195 0.202 0.203 0.2135 0.1915 0.2095 0.1935 0.2075 0.1995 0.2125 0.2 0.1975 0.192 0.1855 0.19 0.1855 0.206 0.206 0.199 0.21 0.205 0.1985 0.207 0.1875 0.207 0.1925 0.1995 0.195 0.218 0.199 0.188 0.2265 0.1895 0.211 0.1805 0.21 0.209 0.2005 0.1805 0.1985 0.208 0.222 0.203 0.206 0.201 0.183 0.1955 0.195 0.1965 0.195 0.2105 0.182 0.204 0.2065 0.198 0.218 0.1885 0.193 0.2055 0.1865 0.184 0.2045 0.212 0.189 0.183 0.1835 0.1955 0.199 0.1925 0.1935 0.196 0.2035 0.1975 0.2205 0.1935 0.206 0.187 0.2015 0.191 0.2075 0.2145 0.2025 0.1575 0.1815 0.1895 0.2075 0.1835 0.2015 0.1925 0.216 0.1885 0.198 0.2065 0.177 0.199 0.2 0.204 0.2165 0.208 0.2125 0.21 0.198 0.208 0.1995 0.215 0.2245 0.205 0.202 0.184 0.2105 0.1865 0.1835 ];
% latency change    = 0.00202128
% throughput change = 0.000700784
I am thread 0
I am thread 1
1%=================================
% Average latency = 116.507
% Accepted packets = 0.174333 at node 355 (avg = 0.199889)
lat(6) = 116.507;
bins = [ 0 ...999];
freq = [ 0 1 2133 230 31 1 0 0 0 0 0 1 13401 2868 462 56 8 0 0 0 0 0 0 0 0 0 0 0 0 0 0 0 0 0 0 0 0 0 0 0 0 0 0 0 0 0 0 0 0 0 0 0 0 0 0 0 0 0 0 0 0 0 0 0 0 0 0 0 0 0 0 0 0 0 0 0 0 0 0 0 0 0 0 0 0 0 0 0 0 0 0 0 0 0 0 0 0 0 0 0 0 0 7423 1483 228 27 4 0 0 0 0 17 93291 29292 5955 1065 179 29 3 1 0 47 282358 126317 33157 7099 1383 244 45 9 2 1 0 0 0 0 0 0 0 0 0 0 0 0 0 0 0 0 0 0 0 0 0 0 0 0 0 0 0 0 0 0 0 0 0 0 0 0 0 0 0 0 0 0 0 0 0 0 0 0 0 0 0 0 0 0 0 0 0 0 0 0 0 0 0 0 0 0 0 0 0 0 0 0 0 0 0 0 0 0 0 0 0 0 0 0 0 0 0 0 0 0 0 0 0 0 0 0 0 0 0 0 0 0 0 0 0 0 0 0 0 0 0 0 0 0 0 0 0 0 0 0 0 0 0 0 0 0 0 0 0 0 0 0 0 0 0 0 0 0 0 0 0 0 0 0 0 0 0 0 0 0 0 0 0 0 0 0 0 0 0 0 0 0 0 0 0 0 0 0 0 0 0 0 0 0 0 0 0 0 0 0 0 0 0 0 0 0 0 0 0 0 0 0 0 0 0 0 0 0 0 0 0 0 0 0 0 0 0 0 0 0 0 0 0 0 0 0 0 0 0 0 0 0 0 0 0 0 0 0 0 0 0 0 0 0 0 0 0 0 0 0 0 0 0 0 0 0 0 0 0 0 0 0 0 0 0 0 0 0 0 0 0 0 0 0 0 0 0 0 0 0 0 0 0 0 0 0 0 0 0 0 0 0 0 0 0 0 0 0 0 0 0 0 0 0 0 0 0 0 0 0 0 0 0 0 0 0 0 0 0 0 0 0 0 0 0 0 0 0 0 0 0 0 0 0 0 0 0 0 0 0 0 0 0 0 0 0 0 0 0 0 0 0 0 0 0 0 0 0 0 0 0 0 0 0 0 0 0 0 0 0 0 0 0 0 0 0 0 0 0 0 0 0 0 0 0 0 0 0 0 0 0 0 0 0 0 0 0 0 0 0 0 0 0 0 0 0 0 0 0 0 0 0 0 0 0 0 0 0 0 0 0 0 0 0 0 0 0 0 0 0 0 0 0 0 0 0 0 0 0 0 0 0 0 0 0 0 0 0 0 0 0 0 0 0 0 0 0 0 0 0 0 0 0 0 0 0 0 0 0 0 0 0 0 0 0 0 0 0 0 0 0 0 0 0 0 0 0 0 0 0 0 0 0 0 0 0 0 0 0 0 0 0 0 0 0 0 0 0 0 0 0 0 0 0 0 0 0 0 0 0 0 0 0 0 0 0 0 0 0 0 0 0 0 0 0 0 0 0 0 0 0 0 0 0 0 0 0 0 0 0 0 0 0 0 0 0 0 0 0 0 0 0 0 0 0 0 0 0 0 0 0 0 0 0 0 0 0 0 0 0 0 0 0 0 0 0 0 0 0 0 0 0 0 0 0 0 0 0 0 0 0 0 0 0 0 0 0 0 0 0 0 0 0 0 0 0 0 0 0 0 0 0 0 0 0 0 0 0 0 0 0 0 0 0 0 0 0 0 0 0 0 0 0 0 0 0 0 0 0 0 0 0 0 0 0 0 0 0 0 0 0 0 0 0 0 0 0 0 0 0 0 0 0 0 0 0 0 0 0 0 0 0 0 0 0 0 0 0 0 0 0 0 0 0 0 0 0 0 0 0 0 0 0 0 0 0 0 0 0 0 0 0 0 0 0 0 0 0 0 0 0 0 0 0 0 0 0 0 0 0 0 0 0 0 0 0 0 0 0 0 0 0 0 0 0 0 0 0 0 0 0 0 0 0 0 0 0 0 0 0 0 0 0 0 0 0 0 0 0 0 0 0 0 0 0 0 0 0 0 0 0 0 0 0 0 0 0 0 0 0 0 0 0 0 0 0 0 0 0 0 0 0 0 0 0 0 0 0 0 0 0 0 0 0 0 0 0 0 0 0 0 0 0 0 0 0 0 0 0 0 0 0 0 0 0 0 0 0 0 0 0 0 0 0 0 0 0 0 0 0 0 0 0 0 0 0 0 0 0 0 0 0 0 0 0 0 0 0 0 0 0 0 0 0 0 0 0 0 ];
thru(6,:) = [ 0.199 0.212333 0.215667 0.211 0.203 0.213667 0.203667 0.196 0.194333 0.205333 0.197 0.204667 0.203667 0.189333 0.203667 0.196667 0.214667 0.213667 0.186667 0.207667 0.194 0.210667 0.194 0.201 0.216333 0.196667 0.189 0.207 0.196333 0.208 0.206333 0.177667 0.211 0.185333 0.198333 0.184333 0.209 0.199 0.204333 0.209 0.193 0.214 0.199 0.197333 0.203 0.201 0.216667 0.177667 0.182 0.196 0.205667 0.198667 0.193333 0.194 0.189 0.198667 0.196333 0.196667 0.206667 0.201 0.207667 0.190667 0.195333 0.200667 0.197667 0.203333 0.207667 0.202 0.201 0.196667 0.207 0.199 0.186 0.202 0.204 0.207333 0.206667 0.198 0.201333 0.215333 0.209667 0.203333 0.191667 0.211667 0.204 0.201333 0.192333 0.205333 0.207333 0.198333 0.189333 0.189333 0.213 0.195 0.193 0.194667 0.182333 0.195667 0.197333 0.203 0.190333 0.200667 0.195333 0.200667 0.200333 0.205333 0.184667 0.202667 0.213 0.189 0.203667 0.197667 0.203333 0.205667 0.199 0.213667 0.188 0.2 0.196333 0.199 0.188667 0.207333 0.210333 0.209667 0.208667 0.192 0.203667 0.205 0.223333 0.197 0.199 0.191667 0.195667 0.201 0.209333 0.197 0.205667 0.2 0.204 0.199667 0.206333 0.198667 0.189333 0.2 0.199 0.215 0.210667 0.185667 0.196333 0.212667 0.197333 0.198667 0.193 0.183333 0.190333 0.197333 0.204667 0.202333 0.195333 0.196333 0.201667 0.198667 0.205 0.184333 0.202667 0.202333 0.203333 0.197667 0.203667 0.194 0.216333 0.187 0.193 0.207667 0.203333 0.204333 0.201 0.204 0.2 0.202667 0.204333 0.185667 0.188 0.202333 0.217 0.201 0.198333 0.219333 0.203333 0.191 0.208 0.209 0.204 0.195333 0.209667 0.199333 0.202333 0.194667 0.195 0.206333 0.187667 0.215 0.209667 0.198667 0.204 0.184667 0.198667 0.198 0.203333 0.186667 0.209 0.204333 0.202333 0.188667 0.199333 0.217 0.195333 0.193333 0.206 0.184667 0.201 0.185333 0.206667 0.189333 0.191667 0.186 0.183 0.196667 0.194667 0.213667 0.19 0.194333 0.194667 0.201 0.190667 0.199333 0.209333 0.193 0.196 0.207667 0.195667 0.203667 0.202 0.210333 0.191 0.195 0.185667 0.195333 0.189 0.191667 0.205 0.199333 0.204 0.203667 0.200333 0.190333 0.195 0.197 0.205333 0.195333 0.208667 0.216333 0.198 0.196 0.213667 0.187333 0.201 0.198333 0.200333 0.195 0.206 0.200333 0.214 0.199333 0.218667 0.193333 0.207333 0.186667 0.222 0.191333 0.193 0.201667 0.206333 0.209333 0.183 0.205333 0.210667 0.211 0.203333 0.184 0.184667 0.201333 0.196 0.206 0.203 0.192 0.208667 0.197333 0.198 0.205 0.201 0.200667 0.199 0.216 0.197333 0.209 0.202667 0.200667 0.201 0.208 0.200333 0.214 0.195333 0.188667 0.196 0.207667 0.205333 0.202 0.208 0.212 0.212333 0.188 0.213 0.199333 0.194667 0.204667 0.193667 0.196667 0.201667 0.199333 0.194 0.200333 0.205667 0.197333 0.191667 0.199667 0.198 0.196667 0.193333 0.215667 0.197667 0.202667 0.198 0.189667 0.208 0.202 0.203 0.195667 0.202667 0.204333 0.211 0.209 0.193 0.199667 0.183 0.174333 0.207 0.197 0.206333 0.214333 0.204667 0.209667 0.192 0.194667 0.198667 0.192 0.199667 0.192333 0.192333 0.204 0.21 0.21 0.205333 0.215 0.203667 0.221667 0.193333 0.202 0.198667 0.216667 0.192333 0.194 0.2 0.199333 0.196667 0.205 0.196333 0.219333 0.200667 0.193333 0.187333 0.198667 0.191 0.195667 0.214333 0.201 0.192667 0.208 0.207333 0.208667 0.199333 0.194 0.198667 0.213 0.187667 0.211667 0.217667 0.192 0.204 0.205667 0.194 0.203 0.196 0.206 0.196333 0.201 0.184667 0.192333 0.201333 0.198333 0.203333 0.200667 0.212 0.190667 0.184333 0.193333 0.208 0.204667 0.199 0.195 0.201 0.186667 0.209333 0.199333 0.191667 0.208333 0.205667 0.211333 0.205667 0.190333 0.201667 0.198667 0.196 0.181667 0.196 0.197 0.206667 0.183667 0.199 0.215667 0.196667 0.186333 0.209 0.206667 0.209667 0.198333 0.200667 0.201333 0.198 0.219333 0.179667 0.197667 0.199 0.203 0.195 0.2 0.188333 0.195333 0.202667 0.198 0.2 0.201333 0.200333 0.187 0.197667 0.193333 0.191 0.203 0.185 0.200667 0.208 0.198333 0.204667 0.196333 0.208333 0.193333 0.176 0.2 0.208333 0.197333 0.178333 0.195667 0.208333 0.19 0.195667 0.215333 0.195 0.200667 0.201667 0.203333 0.200667 0.203 0.197333 0.181 0.190333 0.198 0.193667 0.184667 0.189 0.212 0.202 0.212 0.203 0.211333 0.211333 0.187 0.203 0.201 0.198333 0.206 0.2 0.208 0.194 0.195333 0.198667 0.204 0.198333 0.187333 0.199 0.193667 0.205333 0.189333 0.193667 0.195 0.195 0.193667 0.191333 0.199667 0.202 0.203333 0.202667 0.197667 0.207333 0.213 0.207667 0.204 0.212 0.208333 0.193333 0.188667 0.198 0.223 0.202667 0.206 0.199333 0.209 0.209333 0.198333 0.192333 0.186333 0.208333 0.216 0.195333 0.199667 0.197 0.200667 0.194667 0.195333 0.185667 0.194667 0.197667 0.198333 0.193333 0.197333 0.195333 0.202333 0.188667 0.204 0.193 0.198333 0.195333 0.204667 0.199667 0.206333 0.21 0.189667 0.211667 0.199333 0.206667 0.201333 0.187 0.206667 0.198 0.186667 0.184667 0.196 0.213667 0.209 0.194667 0.197 0.179667 0.196667 0.192667 0.192667 0.193667 0.201 0.189 0.207667 0.197 0.202333 0.214 0.204333 0.18 0.183667 0.204333 0.186667 0.189667 0.214 0.191333 0.222667 0.191333 0.206333 0.212667 0.193333 0.203 0.202333 0.2 0.208667 0.211 0.208 0.207 0.206333 0.191333 0.187 0.180333 0.195333 0.216333 0.218333 0.187 0.189333 0.196 0.207667 0.196333 0.206667 0.192667 0.208667 0.211 0.203333 0.189333 0.192667 0.182333 0.212 0.191 0.199333 0.186333 0.209 0.192333 0.209667 0.201333 0.205333 0.200667 0.190667 0.199667 0.196667 0.202667 0.210667 0.221333 0.2 0.222333 0.187333 0.202333 0.190333 0.200333 0.204333 0.199 0.206 0.210333 0.206 0.205667 0.197667 0.199333 0.192333 0.208333 0.194667 0.199 0.210333 0.193667 0.212 0.193 0.206 0.201333 0.205 0.2 0.191 0.206333 0.19 0.202 0.193667 0.193333 0.184667 0.191667 0.177 0.203333 0.216333 0.192667 0.196333 0.204667 0.194 0.191333 0.197333 0.191333 0.191333 0.191667 0.217333 0.202667 0.200667 0.201 0.203 0.189667 0.205667 0.205667 0.196667 0.195 0.212333 0.191333 0.198667 0.192667 0.204 0.215 0.202 0.199667 0.194667 0.199 0.196333 0.211333 0.207667 0.19 0.201667 0.204333 0.216333 0.188 0.212 0.200333 0.194667 0.197 0.208333 0.214 0.195 0.207667 0.189 0.197 0.211333 0.175333 0.217 0.201333 0.194667 0.194667 0.201667 0.191 0.195667 0.197333 0.209 0.193333 0.197667 0.205333 0.195667 0.205333 0.194 0.185333 0.19 0.205333 0.207667 0.195667 0.19 0.196 0.208667 0.208667 0.19 0.209667 0.194 0.211 0.199 0.203333 0.203667 0.214333 0.207 0.208 0.202 0.200667 0.205667 0.211667 0.204 0.206667 0.201667 0.209 0.205 0.195 0.199667 0.204333 0.205333 0.204333 0.187 0.199667 0.18 0.19 0.191333 0.197333 0.208 0.206 0.209 0.195667 0.214667 0.207333 0.188 0.200667 0.191667 0.208333 0.198333 0.2 0.214667 0.193667 0.206333 0.197667 0.196 0.2 0.196667 0.219667 0.214333 0.188333 0.189667 0.204 0.190667 0.198333 0.202 0.194 0.196667 0.194 0.208667 0.193 0.197333 0.215 0.185333 0.204 0.197 0.204667 0.206 0.197333 0.205667 0.19 0.195667 0.199 0.195333 0.190333 0.195333 0.19 0.207 0.213667 0.204667 0.212333 0.191333 0.206667 0.197667 0.191333 0.189 0.195333 0.203 0.218667 0.196667 0.207 0.199 0.197667 0.197333 0.208333 0.199667 0.198 0.192333 0.198333 0.207333 0.207 0.202333 0.205 0.205 0.197 0.193333 0.201333 0.188667 0.201333 0.203333 0.201 0.209667 0.191 0.183667 0.192667 0.201333 0.206 0.195667 0.192333 0.204333 0.187667 0.19 0.2 0.198667 0.202667 0.195333 0.202333 0.194667 0.200333 0.2 0.185 0.206333 0.197333 0.192667 0.206667 0.189333 0.197667 0.200667 0.208667 0.205 0.194 0.205667 0.218667 0.193 0.198667 0.196333 0.202 0.189333 0.199 0.214667 0.199333 0.207333 0.183333 0.193667 0.208 0.206 0.208667 0.201333 0.215667 0.191667 0.215667 0.197667 0.214333 0.211 0.211667 0.190667 0.209 0.206333 0.211667 0.207667 0.193 0.205667 0.190667 0.211 0.195667 0.207 0.195333 0.199 0.195667 0.193667 0.196667 0.192667 0.203667 0.206333 0.200667 0.207667 0.202333 0.198333 0.204333 0.185 0.208333 0.187667 0.197 0.196667 0.205667 0.197667 0.196 0.22 0.197 0.214333 0.189333 0.201 0.211 0.200667 0.184 0.195333 0.2 0.215667 0.200333 0.207333 0.203667 0.187 0.192667 0.205 0.211333 0.189 0.218333 0.178333 0.202333 0.206 0.2 0.213333 0.194333 0.186 0.189 0.196 0.183333 0.194 0.205333 0.188 0.187333 0.195333 0.188667 0.201 0.198667 0.196 0.187 0.204667 0.196333 0.214333 0.199 0.210667 0.200667 0.194333 0.188667 0.2 0.201667 0.200667 0.178667 0.19 0.196 0.203667 0.194667 0.189667 0.194 0.213667 0.186 0.200667 0.196667 0.187 0.192333 0.19 0.202667 0.21 0.201667 0.208667 0.206333 0.200333 0.205333 0.208 0.206667 0.208 0.207667 0.194 0.191667 0.208333 0.185333 0.189 ];
% latency change    = 0.000549399
% throughput change = 0.000516385
% Draining all recorded packets ...
% Draining remaining packets ...
Time taken is 6000 cycles
====== Traffic class 0 ======
Overall average latency = 116.507 (1 samples)
Overall average accepted rate = 0.199889 (1 samples)
Overall min accepted rate = 0.174333 (1 samples)
Average hops = 3.69055 (1217528 samples)
Total run time 69.4338
LOL 1267886 1264597
node0 1240
